192
Analysis from 30 .xyz files
C	0.0000000	0.0000000	0.0000000
O	-1.2278758	0.0000000	0.0000000
H	0.5441765	0.9609415	0.0000000
C	0.8874532	-1.2194080	-0.0909681
Cl	0.0703518	-2.6186468	0.6592305
H	1.7894407	-1.0306306	0.4999752
C	1.2332815	-1.5257001	-1.5513835
H	0.3253503	-1.6916626	-2.1437003
H	1.8202022	-2.4509690	-1.5937676
N	2.0264056	-0.4687096	-2.1971230
H	1.4056096	0.2750392	-2.5240229
H	2.4384188	-0.8482970	-3.0531482
O	-1.0375646	1.9399085	-3.0083904
H	-0.6929330	2.5859810	-2.3686413
C	-2.2836638	2.4317637	-3.4662204
H	-2.6999519	1.7266894	-4.1895418
H	-2.1387331	3.4017559	-3.9481035
H	-2.9696901	2.5314044	-2.6214897
O	5.1178200	-1.9210519	-1.1656757
H	4.5861005	-1.1877494	-0.8121203
C	6.4783021	-1.5679886	-0.9961827
H	7.1055943	-2.3737087	-1.3846913
H	6.6889740	-1.4252920	0.0665289
H	6.6882397	-0.6478519	-1.5470050
O	-1.9725596	3.5160228	-0.8952305
H	-2.2641383	2.6037939	-1.0633965
C	-2.2785781	3.8082758	0.4557817
H	-1.9626282	4.8300902	0.6786948
H	-1.7455634	3.1135964	1.1095529
H	-3.3562673	3.7198464	0.6135696
O	-1.9725596	3.5160228	-0.8952305
H	-2.2641383	2.6037939	-1.0633965
C	-2.2785781	3.8082758	0.4557817
H	-1.9626282	4.8300902	0.6786948
H	-1.7455634	3.1135964	1.1095529
H	-3.3562673	3.7198464	0.6135696
O	4.9764040	0.1895044	-4.2937390
H	5.1436141	0.4066629	-3.3608175
C	6.0369832	0.7475974	-5.0473948
H	5.8793555	0.5210856	-6.1044971
H	6.9850347	0.3129018	-4.7212980
H	6.0535433	1.8312760	-4.9077631
O	-4.4158362	-1.8214257	1.3977357
H	-3.6489468	-1.5362311	0.8723746
C	-5.4046000	-0.8162607	1.2701335
H	-6.2833972	-1.1064985	1.8507338
H	-5.6838775	-0.7099532	0.2190370
H	-5.0145860	0.1303518	1.6521601
O	4.5369854	-2.7419259	-0.3557393
H	4.6664654	-1.7953760	-0.1748035
C	5.1632162	-3.4557233	0.6943183
H	5.0359820	-4.5269117	0.5211530
H	4.7004526	-3.1853021	1.6465910
H	6.2292080	-3.2161248	0.7139270
O	4.3993341	2.5165421	-1.4701532
H	4.3643553	1.5799505	-1.7290590
C	4.2583812	2.5645782	-0.0622761
H	4.2934926	3.6069645	0.2630199
H	5.0762819	2.0113565	0.4057892
H	3.2983138	2.1280480	0.2238053
O	1.9652166	2.9035993	-3.8559444
H	1.9711691	2.9081781	-4.8282628
C	3.1922857	3.4665440	-3.4296961
H	3.2183605	3.4764344	-2.3375233
H	3.2738202	4.4902330	-3.8032119
H	4.0215568	2.8627239	-3.8063144
O	-4.0209805	1.7297370	1.9943176
H	-3.3828734	1.6572466	1.2642325
C	-3.5381842	0.9203742	3.0507893
H	-4.2346458	0.9793826	3.8904789
H	-2.5567781	1.2811972	3.3682004
H	-3.4653522	-0.1162574	2.7128233
O	-5.2552974	-0.8649115	0.2710968
H	-4.4780515	-1.2452020	0.7146367
C	-4.8601201	0.3861372	-0.2608855
H	-5.7135771	0.8421950	-0.7680759
H	-4.0491783	0.2382828	-0.9782509
H	-4.5290982	1.0397043	0.5499197
O	-0.0657686	3.2592078	2.4215471
H	-0.6691281	3.1372400	1.6688581
C	-0.7105108	2.7238925	3.5626159
H	-0.0570028	2.8452263	4.4296943
H	-0.9093261	1.6610284	3.4048396
H	-1.6472512	3.2587603	3.7374427
O	-3.5831071	2.6707501	3.1985903
H	-2.6229843	2.6949387	3.3503759
C	-3.8614246	1.4811425	2.4832820
H	-4.9360985	1.4225758	2.2954914
H	-3.5496487	0.6173688	3.0755589
H	-3.3273972	1.4947135	1.5299923
O	-4.5408535	1.2267900	-3.1606380
H	-4.6615892	1.7801061	-2.3702433
C	-3.3161073	0.5348316	-3.0010028
H	-3.1492681	-0.0986479	-3.8753527
H	-3.3632492	-0.0892853	-2.1052592
H	-2.4985387	1.2546498	-2.9139739
O	-2.6270743	4.2086182	2.1587374
H	-3.4445599	3.9112277	1.7243001
C	-1.7349075	3.1093880	2.1636506
H	-0.8024408	3.4106799	2.6467120
H	-1.5275400	2.8026613	1.1355365
H	-2.1795791	2.2805252	2.7198736
O	-2.5323072	-3.8579918	-4.8243616
H	-2.9824662	-3.9949730	-3.9734488
C	-2.4156839	-2.4597433	-5.0130233
H	-1.9121997	-2.2702321	-5.9639221
H	-1.8268871	-2.0292320	-4.1993407
H	-3.4112644	-2.0097497	-5.0343705
O	2.7769697	2.7649988	-5.8585529
H	2.0082860	3.1785501	-5.4301138
C	3.7605422	2.5779477	-4.8576083
H	4.6412081	2.1132808	-5.3071986
H	3.3660112	1.9248806	-4.0753362
H	4.0385503	3.5458275	-4.4332848
O	-0.4483884	2.2762637	3.5604633
H	-0.0572469	2.1702929	2.6765865
C	-0.3610978	3.6498248	3.8921306
H	-0.7935469	3.8042049	4.8834801
H	-0.9172433	4.2387538	3.1586691
H	0.6875076	3.9571494	3.9025634
O	5.5408548	-1.4291918	-0.7267934
H	5.9711195	-1.5290387	-1.5930281
C	5.2861297	-2.7324876	-0.2360509
H	4.8010523	-2.6562138	0.7399110
H	6.2294620	-3.2738258	-0.1303236
H	4.6260224	-3.2609006	-0.9282709
O	0.8322920	-0.2777407	-6.5929582
H	1.1398102	-0.1886820	-5.6748293
C	-0.5769716	-0.4056181	-6.5491784
H	-0.9563419	-0.5080372	-7.5685938
H	-1.0105120	0.4857852	-6.0892395
H	-0.8453906	-1.2937860	-5.9719094
O	2.5954191	0.9061181	-6.5032830
H	2.6741861	0.1818792	-5.8592850
C	2.9369845	2.1025129	-5.8278086
H	2.8585104	2.9394390	-6.5256738
H	3.9632889	2.0334987	-5.4589765
H	2.2486063	2.2604901	-4.9939567
O	3.7927713	-3.2823816	-5.7113846
H	3.7240863	-2.8962895	-4.8216233
C	2.5528682	-3.9057458	-5.9912959
H	2.5961968	-4.3515398	-6.9877945
H	1.7544709	-3.1602051	-5.9624527
H	2.3623415	-4.6880792	-5.2525236
O	-0.8698887	2.5041558	-4.6691345
H	-0.0150876	2.1135398	-4.4197472
C	-0.6127579	3.4508825	-5.6898623
H	-1.5560949	3.9103161	-5.9942557
H	-0.1608801	2.9484709	-6.5486347
H	0.0604852	4.2234361	-5.3103429
O	0.0583201	2.4036657	3.4871748
H	0.6248416	1.9830666	2.8181385
C	0.9154977	3.0253813	4.4268606
H	0.3085906	3.5094615	5.1955930
H	1.5272813	3.7769182	3.9218714
H	1.5555004	2.2716435	4.8920554
O	1.4790240	-3.9032579	-5.3431860
H	1.8699403	-3.1127154	-4.9336905
C	0.3248035	-3.4804505	-6.0455406
H	-0.1404884	-4.3479499	-6.5194263
H	0.6091778	-2.7572010	-6.8137477
H	-0.3822960	-3.0268196	-5.3467131
O	-3.3216556	-1.1073861	-2.6875133
H	-2.4378097	-0.7109732	-2.7719697
C	-4.0435564	-0.7675589	-3.8569874
H	-5.0452646	-1.1991421	-3.7942496
H	-3.5298658	-1.1703871	-4.7333163
H	-4.1218340	0.3196054	-3.9349420
O	-4.2686360	-0.4621844	0.0419659
H	-4.1829926	0.4939841	-0.1125225
C	-5.6132503	-0.8093408	-0.2333299
H	-5.7442703	-1.8814519	-0.0689193
H	-5.8461769	-0.5714033	-1.2741141
H	-6.2774964	-0.2565336	0.4354841
O	-0.5465376	-1.1322733	3.6095721
H	-0.2416733	-0.4870156	2.9491481
C	-0.9577758	-0.3990700	4.7486898
H	-1.3075985	-1.0968029	5.5131584
H	-1.7722859	0.2757352	4.4742593
H	-0.1126314	0.1727293	5.1397231
O	-1.8321888	3.4242466	-0.7230297
H	-0.9306523	3.3369050	-1.0766724
C	-1.9352887	4.7199132	-0.1618597
H	-2.9401684	4.8515071	0.2462076
H	-1.7583903	5.4690420	-0.9374975
H	-1.2013821	4.8300230	0.6402546
O	-3.4529701	-0.8149658	-2.0616865
H	-2.6389064	-1.2806977	-2.3183062
C	-3.6932875	0.1752222	-3.0445742
H	-4.6045847	0.7193107	-2.7854902
H	-3.8208217	-0.3013467	-4.0196219
H	-2.8518134	0.8717432	-3.0747471
