207
Analysis from 50 .xyz files
C	0.0000000	0.0000000	0.0000000
H	-1.0835497	0.0000000	0.0000000
C	0.7457435	1.1053385	0.0000000
H	0.2726271	2.0824437	0.0000002
H	1.8290909	1.0746606	-0.0000030
O	0.5011031	-1.2692866	0.0000006
H	1.4727299	-1.2209927	-0.0000171
C	0.9921216	-4.1237681	-1.7408211
H	0.4174032	-3.3727994	-2.3060434
H	0.5154107	-5.1122662	-1.6440019
O	2.0876931	-3.8762830	-1.2527503
C	1.2913013	-1.5498171	3.0022439
H	0.8914951	-0.5232448	3.0082224
H	0.5609570	-2.3450712	3.2211595
O	2.4688932	-1.7908625	2.7679080
C	0.7628003	-1.4399596	3.3790088
H	0.1580925	-2.2605148	2.9609790
H	0.2870216	-0.8645912	4.1891581
O	1.8886489	-1.1844685	2.9704402
C	1.7422173	-4.2899405	-1.5728878
H	1.1695042	-4.6466990	-2.4437806
H	1.4809764	-4.7561566	-0.6094815
O	2.6111860	-3.4324191	-1.6692691
C	2.0643949	-5.0614892	-0.5522302
H	1.1096090	-5.0890409	-1.1011895
H	2.5567784	-6.0362580	-0.4068338
O	2.5462234	-4.0170982	-0.1317215
C	-0.6208250	-3.6532568	-1.7129154
H	-1.2107142	-3.6006762	-0.7839388
H	0.3665986	-4.1333099	-1.6218140
O	-1.0350353	-3.2078454	-2.7758252
C	-1.4350153	-3.1071723	-2.1139686
H	-1.3043346	-3.4123157	-1.0634728
H	-0.6425110	-2.4600389	-2.5225162
O	-2.3969495	-3.4635129	-2.7828803
C	-0.8859288	-3.8712976	-1.7672466
H	-0.9948487	-2.9706131	-2.3922547
H	-1.0716350	-3.7275802	-0.6908571
O	-0.5789368	-4.9595520	-2.2375628
C	1.8561496	0.2129419	-3.4655312
H	1.5541932	1.1834781	-3.8905173
H	1.2678055	-0.6559856	-3.8010491
O	2.7838248	0.1070508	-2.6731016
C	-0.6012416	-3.7602220	-2.0245180
H	-1.0664731	-2.7629101	-2.0760934
H	0.4406714	-3.7801899	-1.6670624
O	-1.2021202	-4.7786052	-2.3432333
C	-1.2101438	-2.9221426	-2.3441044
H	-1.0395221	-3.4360068	-1.3846446
H	-0.6509110	-3.3240991	-3.2040146
O	-1.9706368	-1.9678753	-2.4478500
C	0.3912117	-1.4210414	3.0299144
H	0.3830613	-2.4837278	2.7394622
H	-0.5762102	-0.8998528	2.9510914
O	1.4077306	-0.8567976	3.4146966
C	-0.7186599	-3.2371949	-2.3739932
H	0.3761318	-3.2449473	-2.2511020
H	-1.2906791	-3.7188188	-1.5649269
O	-1.2633940	-2.7272760	-3.3450681
C	-4.2699823	-1.7633629	0.3661872
H	-3.4948229	-2.4528653	0.7369239
H	-5.2876073	-2.1811718	0.3059299
O	-4.0173540	-0.6095623	0.0426720
C	-0.3907759	-2.9303384	-2.3320179
H	-1.3815777	-2.8966383	-1.8514898
H	-0.1672149	-2.0977506	-3.0180017
O	0.4086862	-3.8329858	-2.1179454
C	2.8176818	-4.1488253	1.4693959
H	1.8023706	-4.5343749	1.6543989
H	3.5147642	-4.2198693	2.3195633
O	3.1492859	-3.6730627	0.3907729
C	-1.5341487	-3.8632984	-2.4212475
H	-0.8946574	-4.6992958	-2.7466559
H	-1.0701220	-3.1582571	-1.7131856
O	-2.6839944	-3.7268297	-2.8199580
C	1.5304914	-4.7636822	-1.6250501
H	0.9843082	-4.0611102	-0.9755828
H	0.9066046	-5.3610134	-2.3089482
O	2.7496819	-4.8733510	-1.5891875
C	1.6234902	-1.7259069	3.8156889
H	2.2345747	-2.3329903	4.5025344
H	0.5358687	-1.7655164	3.9867629
O	2.1200180	-1.0520581	2.9217499
C	-0.8994101	-3.1293624	-2.9296706
H	-1.7480671	-2.4459978	-3.0925369
H	-0.6348387	-3.3152389	-1.8764812
O	-0.2907958	-3.6477454	-3.8573594
C	-0.4823283	-3.4687136	-3.0999009
H	-1.1482905	-4.2834707	-3.4260857
H	-0.6656650	-3.0835034	-2.0841467
O	0.4026309	-3.0211248	-3.8184065
C	2.1107635	-3.7758518	-2.0989014
H	2.5695854	-3.2089149	-2.9246109
H	1.1749483	-4.3018455	-2.3465633
O	2.6077703	-3.8185256	-0.9804640
C	-1.8530221	-3.2811220	-2.1961071
H	-1.3905163	-2.8869257	-3.1150353
H	-1.1825332	-3.3666871	-1.3261191
O	-3.0335799	-3.6027119	-2.1450958
C	1.5722521	-4.6286980	1.4712101
H	1.4902604	-5.4177273	2.2356977
H	0.9803497	-3.7193155	1.6620794
O	2.2744344	-4.7540875	0.4757421
C	4.4534229	0.8232785	-2.7291411
H	4.7170951	1.6769893	-3.3736457
H	4.2266063	-0.1172413	-3.2561446
O	4.4150182	0.9137153	-1.5084506
C	0.5964294	-1.1381104	3.2128530
H	-0.3916941	-1.3490285	3.6520075
H	0.7626852	-0.0960349	2.8963195
O	1.4528113	-2.0041490	3.0850797
C	-0.8671152	-1.6382754	-2.9386158
H	-0.8398907	-2.5670779	-2.3467408
H	0.1032074	-1.1354838	-3.0780091
O	-1.9065317	-1.1943686	-3.4101018
C	1.6477721	-4.2498802	-1.0244104
H	0.6511269	-4.2110104	-0.5565229
H	1.7252090	-3.7774636	-2.0166715
O	2.6055799	-4.7826251	-0.4780352
C	-0.7600126	-3.0009743	-3.2983853
H	-0.2667426	-2.1831236	-2.7492621
H	-0.6550172	-4.0030614	-2.8527921
O	-1.3833994	-2.8090193	-4.3348606
C	-0.9260300	-2.1035521	3.3825268
H	-1.8112242	-2.0858272	2.7268986
H	0.0440116	-1.9850776	2.8738630
O	-1.0144231	-2.2454659	4.5956987
C	5.5510919	1.2112018	-0.7694061
H	6.4406318	0.6106031	-0.5209483
H	5.6370461	2.2914921	-0.5710614
O	4.5346391	0.7113875	-1.2349684
C	-3.0677957	-2.3578880	-1.7273598
H	-3.9527930	-2.9605828	-1.4679953
H	-2.1278835	-2.9205602	-1.8444956
O	-3.1250002	-1.1435973	-1.8755650
C	2.1584912	-4.4088908	-1.3446271
H	1.8456467	-5.3982312	-1.7148502
H	1.8644020	-4.1747048	-0.3090478
O	2.7909066	-3.6220242	-2.0379023
C	-1.0145059	-2.8972136	-3.1500683
H	-1.5121329	-1.9452369	-3.3946887
H	-0.1370729	-2.8180386	-2.4885560
O	-1.4102459	-3.9716621	-3.5844517
C	-1.4679122	-2.8506926	-1.8836772
H	-0.6477879	-3.5302900	-1.6021195
H	-2.4527059	-3.0905576	-1.4519339
O	-1.2963455	-1.8926248	-2.6269200
C	-1.4006711	-2.3707171	3.3126831
H	-2.1237608	-3.1529931	3.5936044
H	-0.9122204	-2.5048802	2.3343313
O	-1.1561726	-1.4157979	4.0393802
C	-0.0682145	-1.7139266	3.3978748
H	-0.0847586	-2.6656286	2.8431488
H	0.5827680	-0.9307071	2.9777026
O	-0.7292835	-1.5383548	4.4137002
C	-4.6010721	-0.7782703	-0.7334047
H	-5.0479686	-0.9712349	-1.7217263
H	-4.7015433	-1.5937651	0.0005091
O	-4.0307198	0.2725189	-0.4683023
C	-4.1366342	-1.0738141	1.3549744
H	-5.1398065	-1.2871560	1.7572950
H	-3.3276961	-1.0191055	2.1008846
O	-3.9342293	-0.9085213	0.1585424
C	-4.5816730	-0.8399035	-0.1934940
H	-5.3105926	-0.9144343	0.6292166
H	-4.3804558	-1.7774567	-0.7359526
O	-4.0318105	0.2146619	-0.4855249
C	1.1535956	0.5112487	-3.6418198
H	0.4398281	-0.1504963	-4.1579214
H	1.0898633	1.5783246	-3.9083588
O	1.9637399	0.0889173	-2.8263191
C	2.6027082	-4.4389647	-2.4679567
H	3.4987306	-5.0755178	-2.3926229
H	1.8843922	-4.7213757	-3.2541006
O	2.4175256	-3.4814200	-1.7273121
C	0.9213021	-0.7984523	-3.6540515
H	0.3158114	-0.2784932	-4.4134953
H	0.8995308	-1.8989261	-3.7013732
O	1.5749041	-0.1935815	-2.8134122
C	0.2760492	0.4950951	3.5320882
H	0.8876137	-0.1258391	2.8581736
H	-0.8134805	0.4240481	3.3850053
O	0.7740645	1.2161295	4.3875582
C	1.6931076	2.4656848	-3.5345565
H	0.7740201	2.3128973	-2.9466233
H	1.5697559	2.4219011	-4.6284592
O	2.7793164	2.6705116	-3.0073607
C	-3.5358328	-1.7462917	-1.3633658
H	-2.9092339	-2.4678803	-1.9114671
H	-4.1575495	-2.1718322	-0.5595377
O	-3.5409293	-0.5510018	-1.6298147
C	0.7631372	1.1990928	3.9094148
H	0.3735456	1.5814858	2.9524794
H	0.9681838	0.1170737	3.9401796
O	0.9554372	1.9280773	4.8744750
C	1.2447361	5.9530515	0.6112047
H	1.7626450	5.7979674	1.5711269
H	1.3242270	6.9667743	0.1871727
O	0.6222550	5.0583759	0.0528037
C	-0.6115548	1.0504849	-3.4058025
H	0.3577692	0.7817387	-2.9564499
H	-0.9133589	0.4493749	-4.2783488
O	-1.3071104	1.9568539	-2.9648531
C	2.7440518	-2.5592702	-3.7154877
H	2.4692063	-3.3394201	-4.4431946
H	3.4988955	-1.8341214	-4.0591827
O	2.2439103	-2.5019451	-2.5991046
