203
Analysis from 49 .xyz files
C	0.0000000	0.0000000	0.0000000
H	-1.0835497	0.0000000	0.0000000
C	0.7457436	1.1053384	0.0000000
H	0.2726272	2.0824438	0.0000004
H	1.8290910	1.0746605	-0.0000032
O	0.5011031	-1.2692867	0.0000004
H	1.4727300	-1.2209927	-0.0000173
C	1.5897011	-2.9347690	2.8111883
H	1.6171895	-3.6842941	3.6181503
H	0.5948119	-2.7355023	2.3819517
O	2.5977052	-2.3614000	2.4175961
C	1.6436179	-4.1939475	-1.1710013
H	1.7056683	-5.2853220	-1.0339515
H	0.6279957	-3.7896146	-1.3080507
O	2.6372118	-3.4780494	-1.1710016
C	4.3539389	-3.5008025	-0.4872965
H	3.6372179	-4.3363437	-0.4435558
H	5.3917816	-3.7778295	-0.7320297
O	4.0193512	-2.3415221	-0.2778710
C	4.9416596	-1.1033139	1.8977873
H	5.3291577	-2.1320817	1.9699903
H	5.6328940	-0.3113534	2.2275592
O	3.8176443	-0.8565487	1.4789369
C	1.5580250	-4.0258560	-1.2517934
H	0.5501847	-3.6984395	-1.5531031
H	1.6087463	-5.0050779	-0.7494911
O	2.5553348	-3.3466998	-1.4612188
C	5.3837741	0.5023088	-0.6778781
H	5.5313387	1.5795569	-0.5004166
H	6.2245660	-0.0184746	-1.1632744
O	4.3539325	-0.0775316	-0.3570195
C	1.4616934	-3.8858210	0.8591238
H	1.0139393	-3.6191933	1.8297717
H	0.7543084	-4.2336202	0.0894497
O	2.6653237	-3.8012450	0.6496967
C	1.3893805	-2.1756675	2.8763325
H	0.4618157	-2.6422427	2.5080084
H	1.2747209	-1.5191365	3.7535873
O	2.4753661	-2.3735899	2.3460487
C	1.3609173	-2.5956729	-2.5883375
H	1.0133281	-3.3197578	-1.8342725
H	0.5726575	-2.1435532	-3.2112261
O	2.5444463	-2.3122779	-2.7250314
C	1.4733893	-0.1136710	-3.1274700
H	0.5385238	-0.5080324	-2.6982418
H	1.3503032	0.6261977	-3.9344396
O	2.5757620	-0.4736712	-2.7338799
C	1.4733900	-0.1136694	-3.1274712
H	1.3502952	0.6261894	-3.9344334
H	0.5385205	-0.5080423	-2.6982337
O	2.5757618	-0.4736712	-2.7338799
C	2.8656647	-3.7210450	2.0005852
H	2.4727934	-4.0634286	2.9712331
H	2.9757309	-4.5015848	1.2309106
O	3.1603444	-2.5509838	1.7911589
C	1.7917093	-1.3944273	3.6159537
H	1.3947709	-0.6262737	4.2986770
H	1.5630872	-2.4368098	3.8896809
O	2.4435311	-1.1087022	2.6193453
C	2.0015757	-3.1470138	2.8010660
H	1.8383320	-3.8675516	1.9838096
H	1.9512457	-3.5645926	3.8193247
O	2.2241188	-1.9611154	2.5916416
C	1.1468302	-1.9509464	-2.6834726
H	0.9891731	-0.8692381	-2.8205224
H	0.2326936	-2.5503856	-2.5464222
O	2.2636121	-2.4534771	-2.6834730
C	1.3483232	-4.1546459	0.5109759
H	1.7394012	-4.7583843	-0.3234637
H	0.2508804	-4.0747790	0.5657149
O	2.0843287	-3.6087778	1.3234184
C	1.2513144	-3.1921759	-2.1890614
H	0.1681981	-3.2539127	-1.9972826
H	1.5375233	-2.7585445	-3.1605572
O	2.0816888	-3.5796765	-1.3766204
C	1.1801908	-1.4300278	2.9027578
H	1.2422411	-2.5214023	3.0398076
H	0.1645688	-1.0256949	2.7657085
O	2.1737848	-0.7141298	2.9027574
C	-0.6285189	-4.0899577	1.4026472
H	-1.3656426	-3.2827420	1.5396977
H	0.4143838	-3.7623498	1.2655969
O	-0.9471187	-5.2724267	1.4026472
C	1.1883693	-2.3525293	2.7666255
H	0.0957176	-2.3199544	2.6295761
H	1.6199635	-3.3568697	2.9036751
O	1.8771925	-1.3399774	2.7666254
C	3.0729626	-3.5668998	-0.6167337
H	2.7941321	-4.6153300	-0.4249554
H	2.7501007	-3.1598216	-1.5882292
O	3.6999122	-2.8986092	0.1957077
C	1.1875500	-3.6400201	-1.4634516
H	1.4427656	-2.8999691	-2.2386426
H	0.1113111	-3.7698777	-1.2669753
O	2.0430286	-4.2758393	-0.8604351
C	-3.1081532	-1.8736150	1.3660791
H	-3.8088041	-2.7126841	1.2290293
H	-2.0517646	-2.1547137	1.5031286
O	-3.4788091	-0.7064162	1.3660795
C	-0.0762863	-4.6388549	-1.4171591
H	-1.1403054	-4.8894776	-1.2801086
H	0.1455430	-3.5684508	-1.5542090
O	0.8012714	-5.4930396	-1.4171596
C	2.2839483	-3.2248849	-2.6624045
H	1.4366416	-3.7952449	-2.2494978
H	3.0357790	-3.8185683	-3.2065061
O	2.3834458	-2.0119733	-2.5257123
C	-4.0352425	-1.5864205	1.2505144
H	-5.0976178	-1.7818223	1.4670976
H	-3.4083655	-2.4804200	1.1037287
O	-3.5814471	-0.4512913	1.1777813
C	1.7622226	-4.2128356	2.2675117
H	1.0986312	-4.9937829	2.6718618
H	1.2549519	-3.3574949	1.7933547
O	2.9822400	-4.2903361	2.3402434
C	1.1255488	-2.3476253	2.9320363
H	1.3473656	-1.2772300	2.7949864
H	0.0615212	-2.5982607	3.0690869
O	2.0031050	-3.2018115	2.9320356
C	0.8285553	-3.9355756	-1.9883752
H	-0.1393477	-3.5255216	-1.6586015
H	1.6853788	-3.2468111	-1.9161729
O	0.9443150	-5.0805219	-2.4072266
C	0.5708807	-3.5089825	-2.3695435
H	1.6148986	-3.2264157	-2.1599874
H	-0.0925057	-3.5603074	-1.4914544
O	0.1742538	-3.7499329	-3.5028435
C	-3.6939696	-1.5913822	-1.1642333
H	-3.0550060	-1.7808504	-2.0414781
H	-4.2642082	-2.4590872	-0.7958962
O	-3.7655890	-0.4898344	-0.6339483
C	0.3543644	-4.0675371	2.4816227
H	-0.0367145	-3.4637984	1.6471840
H	1.4518073	-4.1474041	2.5363606
O	-0.3816403	-4.6134056	3.2940658
C	4.7261305	-1.0559971	-1.3457593
H	5.1136285	-2.0847649	-1.2735562
H	5.4173648	-0.2640366	-1.0159873
O	3.6021154	-0.8092318	-1.7646098
C	0.9806933	-1.2309249	3.0007258
H	-0.0889043	-1.4263720	3.1781876
H	1.2135626	-0.2697179	2.5153300
O	1.8525601	-2.0288206	3.3215833
C	4.6782040	1.9788981	1.4496975
H	5.7542768	2.1712928	1.3126470
H	4.0496502	2.8732656	1.5867480
O	4.2118821	0.8465188	1.4496976
C	-3.7834367	-1.6711573	-1.5449090
H	-3.9370294	-2.3938141	-0.7276527
H	-3.9126534	-2.0714174	-2.5631677
O	-3.4887569	-0.5010957	-1.3354845
C	-0.4554370	-3.4718650	-1.8893958
H	-0.9735523	-2.5093135	-2.0264452
H	-1.1094241	-4.3478068	-1.7523457
O	0.7658703	-3.5621274	-1.8893963
C	1.1699438	-3.4670698	2.2102658
H	0.0764444	-3.3594930	2.2903748
H	1.7541074	-2.5611978	2.4380919
O	1.7006773	-4.5230577	1.8894071
C	-0.0963133	-2.1147007	-2.9795011
H	-0.8921231	-1.5252955	-2.4967801
H	0.9337405	-1.8347815	-2.7067552
O	-0.3403749	-3.0205245	-3.7666835
C	-3.9345851	0.8453593	1.6406624
H	-4.1000783	-0.0620059	2.2431834
H	-3.9684290	1.7965020	2.1955841
O	-3.7268758	0.7997605	0.4346291
C	1.3753997	5.8281612	0.0000003
H	0.4066462	6.3345849	0.1370509
H	2.2433594	6.4927055	-0.1370500
O	1.4804418	4.6080362	0.0000000
C	0.2687095	-0.7599498	3.1164291
H	-0.7154935	-0.8697535	2.6337088
H	1.0186973	-1.5194782	2.8436824
O	0.5127735	0.1458734	3.9036114
C	0.6183975	5.2619212	1.9353607
H	1.1661675	6.0327700	2.5005789
H	-0.4794081	5.3535540	1.9488582
O	1.1915096	4.3632272	1.3323430
C	0.1608444	5.4846409	-0.6415582
H	0.3091775	6.2198557	-1.4485204
H	-0.8531735	5.4488829	-0.2123206
O	1.0628604	4.7558118	-0.2479671
C	0.5208505	-1.1626895	-3.5742656
H	1.0755673	-1.6206550	-2.7398269
H	0.5678216	-0.0633473	-3.6290039
O	-0.1060995	-1.8309781	-4.3867082
C	0.9398629	1.7309953	3.3103915
H	0.1571756	2.3691055	2.8699969
H	1.8754465	1.6602952	2.7329482
O	0.7805640	1.1397605	4.3709593
C	1.2731226	2.9678797	-2.5404206
H	0.2889197	2.8580761	-3.0231410
H	2.0231104	2.2083513	-2.8131673
O	1.5171867	3.8737029	-1.7532383
C	0.6003770	3.3130137	-2.4908120
H	1.0468428	2.4132675	-2.9434226
H	-0.4543392	3.5004440	-2.7481046
O	1.2341484	4.0552418	-1.7511026
C	0.9416059	4.1424573	-3.2378121
H	1.6658323	4.2736034	-4.0575854
H	-0.0271066	4.6490848	-3.3744890
O	1.1963400	3.4779107	-2.2412043
