151
Analysis from 36 .xyz files
C	0.0000000	0.0000000	0.0000000
H	-1.0835498	0.0000000	0.0000000
C	0.7457435	1.1053385	0.0000000
H	0.2726271	2.0824438	0.0000004
H	1.8290909	1.0746606	-0.0000030
O	0.5011031	-1.2692866	0.0000005
H	1.4727298	-1.2209927	-0.0000171
C	5.2596648	-0.7877136	1.8017898
H	5.3773960	-1.2064834	2.8139669
H	6.1627958	-0.3271783	1.3704923
O	4.1959532	-0.8312269	1.1965103
C	4.1210619	-4.1605712	-0.2168402
H	4.9840185	-4.6027852	-0.7397972
H	3.4636582	-4.8755367	0.3031603
O	3.9068676	-2.9548142	-0.2137482
C	2.2638486	-0.4629617	-3.2783318
H	2.0608226	-1.4116266	-3.8003920
H	1.6752718	0.4029912	-3.6210544
O	3.0886785	-0.3767620	-2.3772413
C	2.5687366	-2.5870493	-3.3769374
H	1.5532752	-2.2525562	-3.6428017
H	3.1411603	-3.0599799	-4.1908315
O	3.0303884	-2.4428050	-2.2518552
C	1.6627146	-0.4000004	3.3590543
H	0.6884362	-0.1463571	2.9116416
H	1.6200114	-0.8717004	4.3537560
O	2.7223982	-0.1727981	2.7888013
C	2.6914134	-4.4526497	-1.7640992
H	3.3717760	-5.1222965	-2.3140186
H	1.8660080	-4.9492172	-1.2294195
O	2.8425335	-3.2374751	-1.7482082
C	-0.4336815	-3.0851139	-2.2696402
H	0.0406211	-2.2433353	-2.7989579
H	-1.3865946	-2.8538025	-1.7674376
O	0.0650078	-4.2032592	-2.2413798
C	-0.4336815	-3.0851139	-2.2696402
H	0.0406211	-2.2433353	-2.7989579
H	-1.3865946	-2.8538025	-1.7674376
O	0.0650078	-4.2032592	-2.2413798
C	1.0743654	-0.4743536	-3.2793000
H	0.2298255	-0.7937217	-3.9105588
H	1.0415865	0.5720573	-2.9362175
O	1.9885210	-1.2319071	-2.9790150
C	1.3801723	-3.3516675	2.7666545
H	0.3509555	-3.4835407	2.3964470
H	1.8747394	-4.2664242	3.1304942
O	1.9372817	-2.2611061	2.7732936
C	2.8476887	-4.5075065	-0.1518990
H	1.9524442	-4.1086621	-0.6550805
H	2.9252845	-5.6060464	-0.1211601
O	3.6996731	-3.7784504	0.3403800
C	5.2540158	2.4317435	-0.2107948
H	6.3415773	2.5990576	-0.2650844
H	4.6778656	3.2173600	0.3036111
O	4.7211198	1.4388145	-0.6902244
C	-1.7785001	-2.1931497	-2.4313396
H	-2.1350568	-2.4229020	-1.4145739
H	-1.2278283	-3.0031600	-2.9357202
O	-1.9807586	-1.1097428	-2.9652497
C	3.9349318	-4.4424842	0.3052522
H	4.9406817	-3.9938544	0.2747615
H	3.0957170	-3.7303980	0.2561840
O	3.7613889	-5.6519262	0.3881483
C	2.6593086	1.4362715	2.8821623
H	2.3802060	2.4471345	3.2197852
H	3.6346314	1.3571718	2.3759563
O	1.9338726	0.4653819	3.0578174
C	2.6002870	-3.4959250	-1.5943402
H	2.2308737	-4.1449725	-0.7844004
H	3.6648586	-3.2190665	-1.5327552
O	1.8759586	-3.1081048	-2.5024608
C	4.4947528	-2.5354320	-0.9578582
H	4.5141152	-1.4700725	-0.6779193
H	3.5414134	-2.9001593	-1.3724351
O	5.4679311	-3.2654894	-0.8175763
C	-2.6660338	-2.5915059	1.5640254
H	-3.6792934	-2.7702193	1.9578501
H	-2.0566677	-1.8698251	2.1311283
O	-2.2451692	-3.1572614	0.5627599
C	0.1164470	-0.5445107	-3.0183098
H	-0.2646230	0.4716174	-3.2080480
H	1.2109819	-0.6320184	-2.9283563
O	-0.6269570	-1.5121252	-2.9143311
C	1.0322438	-4.7711404	-0.3485752
H	1.5185145	-4.0409279	-1.0149548
H	1.6284471	-5.6661511	-0.1092985
O	-0.0956717	-4.5994372	0.0964679
C	-2.1289742	-1.7533306	2.2819429
H	-2.4844293	-0.9083992	2.8930682
H	-2.7709686	-2.0255886	1.4290217
O	-1.0896521	-2.3500536	2.5338752
C	1.1131289	-0.5778024	-3.2707640
H	0.4521847	-1.3519753	-3.6921193
H	2.1723149	-0.8627185	-3.1673060
O	0.6981840	0.5257538	-2.9395185
C	0.8209322	-0.5321663	3.7655273
H	0.8308485	-0.8203825	4.8288074
H	1.5419178	0.2499850	3.4788655
O	0.0593544	-1.0468297	2.9562934
C	-1.6198242	-4.2147700	0.9115914
H	-1.8399363	-5.1306468	1.4829508
H	-1.7029218	-4.3066037	-0.1831310
O	-1.3038866	-3.1647467	1.4569111
C	-1.4762031	-3.0838895	2.5933518
H	-2.4051753	-3.0050901	2.0063829
H	-1.5959042	-2.9995188	3.6852808
O	-0.3834983	-3.2539121	2.0672078
C	1.1978246	-4.6423286	-0.1278480
H	0.9455535	-4.9666852	0.8943474
H	2.2433562	-4.8068102	-0.4337329
O	0.3712733	-4.1329695	-0.8742425
C	-2.6864123	-2.6691237	2.0227421
H	-2.9618692	-1.6800357	1.6232926
H	-3.4005430	-3.1081577	2.7376005
O	-1.6552860	-3.2422832	1.6941003
C	-0.8992829	-0.4142913	-2.9616261
H	-1.0363353	-1.4924038	-2.7810125
H	-1.8264842	0.1693775	-3.0773170
O	0.2096422	0.1009249	-3.0292744
C	1.1621395	-3.5004310	2.0624033
H	2.0060563	-3.8786983	1.4636966
H	1.4370565	-2.9620247	2.9834327
O	-0.0036690	-3.6672826	1.7265613
C	1.5045756	-0.2064978	-3.3113301
H	2.1529050	-0.8879397	-3.8849478
H	1.9244394	0.7922422	-3.1113579
O	0.3915357	-0.5371005	-2.9219937
C	-2.1567223	-3.6159782	-1.9563938
H	-1.7554478	-4.4285582	-2.5828311
H	-3.1208136	-3.1955510	-2.2843038
O	-1.5702914	-3.2073530	-0.9619778
C	1.5067143	-0.9421408	3.5591637
H	2.5278001	-0.5661250	3.3867475
H	1.4069762	-1.6975482	4.3548821
O	0.5466771	-0.5468302	2.9097046
C	2.1163709	-4.4933728	-0.9488362
H	2.3390592	-5.4493952	-0.4486739
H	2.9853780	-3.9661600	-1.3738411
O	0.9788503	-4.0465493	-1.0271592
C	-0.0910280	-3.1423211	3.5379003
H	-0.6147805	-3.0420564	4.5019343
H	0.7948513	-3.7972466	3.5447118
O	-0.4683462	-2.5643837	2.5262886
C	-1.4440666	-4.8487573	-1.0147115
H	-1.8373459	-4.8742548	-2.0435033
H	-1.5246827	-5.7925171	-0.4520621
O	-0.9502714	-3.8388184	-0.5289866
C	-0.4477980	0.6689216	-4.0342302
H	-0.5719906	-0.2862737	-4.5689352
H	-0.7829230	1.5654929	-4.5797639
O	0.0307983	0.7300230	-2.9086409
