59
Analysis from 13 .xyz files
C	0.0000000	0.0000000	0.0000000
H	-1.0835497	0.0000000	0.0000000
C	0.7457435	1.1053385	0.0000000
H	0.2726270	2.0824438	0.0000003
H	1.8290908	1.0746607	-0.0000032
O	0.5011031	-1.2692866	0.0000005
H	1.4727300	-1.2209926	-0.0000172
C	5.2031296	-0.6478904	0.6924919
H	5.6630124	-1.4901646	0.1513697
H	5.8797657	0.1872479	0.9342834
O	4.0188995	-0.6404392	1.0043935
C	1.4966248	-1.0056060	-3.5615658
H	1.8566396	-1.3021036	-4.5596689
H	0.4020412	-0.9540183	-3.4476306
O	2.2620188	-0.7504136	-2.6402690
C	5.1897449	1.3006163	1.0561633
H	4.8949241	2.3587947	0.9720763
H	6.2160626	1.1206736	1.4140022
O	4.4275501	0.3855005	0.7709252
C	1.4893761	-4.2717367	-0.2138885
H	1.5944009	-4.7284104	-1.2109592
H	0.4560077	-4.0643962	0.1069160
O	2.4566824	-4.0119325	0.4907811
C	-0.0559765	-4.5602022	-0.8536677
H	0.1959643	-4.0468825	0.0880117
H	-1.1183472	-4.8221684	-0.9821128
O	0.7884641	-4.8221127	-1.7010531
C	0.4248941	-4.0610675	-1.9655282
H	0.0156198	-3.8521865	-0.9642318
H	1.5111420	-3.9131402	-2.0747934
O	-0.2804860	-4.4328579	-2.8950173
C	0.5452735	-2.1626462	-2.7271302
H	-0.3686580	-2.7704633	-2.6321628
H	1.4771822	-2.6526178	-2.4027387
O	0.5265583	-1.0187707	-3.1640945
C	0.9286546	-4.6155499	1.4803794
H	-0.1457236	-4.4032955	1.6003415
H	1.5020947	-3.8603464	0.9194960
O	1.4506378	-5.6236167	1.9398071
C	2.3661376	4.1519260	-2.3390635
H	3.3072432	3.6398774	-2.5956915
H	1.9279449	4.7692538	-3.1394692
O	1.8420985	4.0422353	-1.2376599
C	1.8797825	-3.1621803	3.2728689
H	0.8671092	-3.0390366	3.6888733
H	2.0111932	-2.8197613	2.2340058
O	2.7980524	-3.6472836	3.9218636
C	-0.4593818	-0.1584626	3.3619385
H	-0.8872240	-0.8810747	2.6488367
H	-0.4094377	0.8840231	3.0091138
O	-0.0656173	-0.4917486	4.4726180
C	-2.9070522	0.1794213	-2.3454599
H	-2.7178672	-0.7257008	-2.9443710
H	-2.4746106	1.1111943	-2.7436423
O	-3.5547754	0.1516682	-1.3065070
C	1.9468825	4.9732824	-0.8518117
H	1.2212029	5.6389852	-1.3457351
H	2.8836180	4.7984221	-1.4047189
O	1.7269820	4.4618283	0.2389666
