59
Analysis from 13 .xyz files
C	0.0000000	0.0000000	0.0000000
H	-1.0822792	0.0000000	0.0000000
C	0.7401610	1.1066608	0.0000000
H	0.2806644	2.0883723	0.0000020
H	1.8236468	1.0483231	-0.0000009
O	0.5658642	-1.2418728	-0.0000021
H	-0.1492317	-1.9023015	-0.0000019
C	-0.0695634	-2.7399685	3.0165279
H	0.1467874	-1.6694594	2.8718425
H	0.4507777	-3.2196403	3.8608715
O	-0.8371816	-3.3556231	2.2875076
C	2.4694540	-3.5570453	-1.5005090
H	2.5606321	-2.4598655	-1.5406889
H	3.4134284	-4.1070408	-1.3584761
O	1.3908520	-4.1272155	-1.6066339
C	-1.4761511	-5.5511432	-0.6763748
H	-2.4693506	-5.8303402	-1.0628138
H	-0.9344398	-6.3466953	-0.1402762
O	-1.0056942	-4.4312802	-0.8323111
C	-0.2728057	-3.4942815	-2.6488712
H	0.7945428	-3.6221696	-2.8900001
H	-0.8391605	-2.8418935	-3.3325291
O	-0.7948467	-4.0407954	-1.6852662
C	-1.6931065	0.5880126	-3.1581002
H	-0.6855008	0.4677695	-2.7291437
H	-1.7619969	0.4635775	-4.2505863
O	-2.6712401	0.8429601	-2.4667282
C	-4.9006298	0.5903237	0.8902610
H	-5.5810414	1.4566118	0.8724818
H	-5.2958275	-0.3138408	1.3802215
O	-3.7798636	0.6297735	0.3982594
C	3.7137456	-1.1252885	2.0283545
H	3.1756291	-1.8744891	1.4259755
H	3.8193455	-0.1310038	1.5657505
O	4.1644233	-1.3806453	3.1380487
C	-3.4002621	1.4691938	-2.7002912
H	-3.0886376	2.4729392	-3.0306192
H	-3.9569774	0.8763237	-3.4434796
O	-3.1448876	1.0410544	-1.5817121
C	1.0692613	-1.8420144	-3.3291059
H	2.0159224	-1.2918699	-3.4511928
H	0.2767029	-1.3074971	-2.7814762
O	0.9086729	-2.9722106	-3.7725097
C	1.6418305	-0.2700429	3.5393580
H	0.6546017	0.0436333	3.9144818
H	1.6723760	-0.5764868	2.4815702
O	2.6386860	-0.2775817	4.2506675
C	-1.2993413	1.0620599	3.2879373
H	-0.4984356	1.2962869	2.5686189
H	-0.9657667	0.6376987	4.2483547
O	-2.4814524	1.2601726	3.0367328
C	3.0005304	-3.8585509	-0.7460920
H	3.8198792	-4.4191486	-0.2684633
H	3.2622750	-3.3409545	-1.6827560
O	1.8740461	-3.8137368	-0.2677996
C	-3.8019274	-1.7591876	0.7161199
H	-3.0391005	-2.3635190	0.1997769
H	-4.6838033	-2.3134643	1.0750463
O	-3.6778942	-0.5519398	0.8801548
