300
Analysis from 48 .xyz files
C	0.0000000	0.0000000	0.0000000
O	-1.2278757	0.0000000	0.0000000
H	0.5441766	0.9609415	0.0000000
C	0.8874531	-1.2194080	-0.0909680
Cl	0.0703517	-2.6186467	0.6592307
H	1.7894407	-1.0306307	0.4999752
C	1.2332813	-1.5257002	-1.5513835
H	0.3253501	-1.6916627	-2.1437002
H	1.8202020	-2.4509691	-1.5937677
N	2.0264055	-0.4687097	-2.1971232
H	1.4056095	0.2750391	-2.5240230
H	2.4384186	-0.8482973	-3.0531483
O	4.4725975	0.2308178	1.2721825
H	5.1838919	0.2813545	1.9332165
C	4.8627316	1.0406555	0.1784498
H	4.0824484	1.0060633	-0.5854747
H	5.7977203	0.6617086	-0.2414268
H	4.9938020	2.0717315	0.5158419
O	3.8365529	1.0248905	1.2628472
H	4.2506464	0.8304289	0.4048431
C	4.1506091	2.3680625	1.5815179
H	3.6986859	2.6199961	2.5437623
H	3.7507693	3.0297683	0.8092649
H	5.2351453	2.4833558	1.6494834
O	0.8030470	2.3676986	-4.5805872
H	0.5304318	3.2606502	-4.3089664
C	0.3653491	2.1868344	-5.9147542
H	0.6567126	1.1894150	-6.2522170
H	0.8322728	2.9373353	-6.5572740
H	-0.7225332	2.2804298	-5.9581422
O	1.9542263	2.0137021	-4.9012338
H	1.4512997	2.8102785	-5.1420465
C	3.3271254	2.3534280	-4.9646947
H	3.9227426	1.4770065	-4.6987159
H	3.5364892	3.1612856	-4.2592631
H	3.5790375	2.6678277	-5.9804820
O	-2.4357551	-0.4184555	-3.9130404
H	-2.8478398	-1.0617919	-4.5145088
C	-3.4344733	-0.0044016	-2.9990305
H	-3.0030106	0.7217655	-2.3061088
H	-3.7972867	-0.8690960	-2.4379861
H	-4.2587164	0.4612656	-3.5448401
O	-2.6526712	-3.0050486	-3.2231620
H	-2.8174034	-3.9559219	-3.3421703
C	-3.2022796	-2.6411755	-1.9702375
H	-3.0338190	-1.5744989	-1.8045831
H	-2.7135701	-3.2124724	-1.1772155
H	-4.2763357	-2.8425059	-1.9701807
O	-1.6935684	0.9011534	-4.6453908
H	-2.2372868	0.7396471	-5.4351665
C	-2.5792367	1.0160891	-3.5469034
H	-1.9984371	1.1986955	-2.6397397
H	-3.1441737	0.0874843	-3.4344748
H	-3.2621234	1.8526231	-3.7142573
O	-2.9524098	3.0785856	-1.5084424
H	-2.8522246	2.1242444	-1.3514215
C	-1.8192247	3.7140192	-0.9459403
H	-1.9004136	4.7917821	-1.1054858
H	-0.9135820	3.3431304	-1.4321025
H	-1.7801113	3.5086105	0.1266305
O	-2.9524098	3.0785856	-1.5084424
H	-2.8522246	2.1242444	-1.3514215
C	-1.8192247	3.7140192	-0.9459403
H	-1.9004136	4.7917821	-1.1054858
H	-0.9135820	3.3431304	-1.4321025
H	-1.7801113	3.5086105	0.1266305
O	2.3038467	-0.9950706	3.4548921
H	1.8985261	-0.2117207	3.8642062
C	1.6075567	-2.1269215	3.9431407
H	2.0395707	-3.0278344	3.5011690
H	0.5535540	-2.0559907	3.6635906
H	1.7047857	-2.1745491	5.0305268
O	-4.1663423	-1.1748902	3.9362304
H	-4.7376882	-0.3945373	3.8358664
C	-3.6030539	-1.4443279	2.6656390
H	-2.9529604	-2.3189467	2.7433551
H	-3.0149499	-0.5839876	2.3369304
H	-4.4014170	-1.6490929	1.9481307
O	-1.1991307	-0.7532905	-5.8369822
H	-1.1390464	-1.6576456	-6.1891065
C	-2.2225558	-0.7548114	-4.8587737
H	-2.3166162	0.2504237	-4.4413117
H	-1.9643197	-1.4555648	-4.0610522
H	-3.1692423	-1.0450451	-5.3210285
O	-4.9735043	2.6396426	0.9055616
H	-4.9803369	2.5701835	-0.0642778
C	-3.6638433	3.0192787	1.2862946
H	-3.6213594	3.1065850	2.3745005
H	-3.4175988	3.9838540	0.8356739
H	-2.9524112	2.2584443	0.9559526
O	0.1994803	-5.7307630	-3.3660954
H	0.5502486	-6.6373037	-3.3414954
C	-0.3996107	-5.4821454	-2.1076946
H	-0.8054931	-4.4678276	-2.1015262
H	0.3521927	-5.5762054	-1.3202651
H	-1.2089827	-6.1971288	-1.9408222
O	0.8362006	-4.9810688	3.1903695
H	-0.0163002	-4.6322211	2.8789099
C	1.1363179	-6.1150651	2.3977314
H	2.0919353	-6.5330557	2.7228445
H	1.2089331	-5.8184793	1.3485104
H	0.3517609	-6.8655185	2.5219115
O	4.2944915	-5.3792987	-2.0774731
H	5.2538935	-5.4063296	-1.9216631
C	3.6688639	-5.3086298	-0.8094475
H	2.5857376	-5.2767165	-0.9488682
H	3.9942107	-4.4030558	-0.2915807
H	3.9325806	-6.1917165	-0.2223003
O	6.0905154	-3.3103582	-4.5004799
H	6.0832496	-4.1891642	-4.0844188
C	5.8719899	-2.3615893	-3.4726778
H	5.8742297	-1.3594470	-3.9077927
H	6.6709033	-2.4361401	-2.7308689
H	4.9040761	-2.5497470	-3.0016467
O	-1.7889660	1.9063276	-5.1625370
H	-0.9808189	1.7372644	-5.6761277
C	-2.1131383	0.7039543	-4.4891101
H	-3.0201102	0.8598517	-3.9002832
H	-1.2925349	0.4254784	-3.8234058
H	-2.2880803	-0.0887091	-5.2206910
O	-2.9764267	-0.8722189	-5.7744945
H	-2.3371726	-1.0326536	-6.4893894
C	-2.2336516	-0.7162573	-4.5793986
H	-2.9244560	-0.5337815	-3.7528933
H	-1.5555055	0.1347718	-4.6792397
H	-1.6647105	-1.6279607	-4.3813242
O	-3.3393001	0.8076442	-1.9668440
H	-3.8215460	-0.0360446	-1.9338632
C	-4.2940948	1.8394619	-1.7994759
H	-3.7834698	2.8047822	-1.8316951
H	-4.7905614	1.7244321	-0.8328374
H	-5.0291099	1.7914245	-2.6066784
O	5.2480929	1.6400062	-4.0497147
H	4.7107058	0.8297114	-4.0595661
C	4.4490351	2.6758054	-4.5909349
H	5.0251108	3.6041071	-4.5944153
H	3.5550882	2.8066111	-3.9762399
H	4.1659176	2.4214170	-5.6152696
O	3.6283845	2.0056684	2.0699238
H	2.6824765	1.8615383	1.8968794
C	3.9647489	1.2364710	3.2098744
H	5.0251662	1.3762086	3.4326025
H	3.7734392	0.1798961	3.0070178
H	3.3685914	1.5684321	4.0634133
O	0.2443204	3.8824804	-1.9671327
H	0.9268241	3.2023364	-2.0977175
C	0.4852217	4.9018984	-2.9195226
H	-0.2670160	5.6851007	-2.7997233
H	0.4160301	4.4843166	-3.9269643
H	1.4789876	5.3262864	-2.7568731
O	4.6153012	1.2674282	-2.1519076
H	5.5681053	1.1229629	-2.2813436
C	4.4278707	1.6131788	-0.7919005
H	3.3637491	1.7829587	-0.6117912
H	4.9835095	2.5269427	-0.5673961
H	4.7770027	0.7960853	-0.1558221
O	-0.0754604	3.8986219	2.5645697
H	0.2468784	3.2337224	1.9325363
C	-0.0187279	5.1541265	1.9128163
H	-0.3755100	5.9266662	2.5980231
H	-0.6564281	5.1342856	1.0256602
H	1.0136041	5.3714415	1.6278684
O	-0.6702143	4.4655591	-0.4495729
H	0.1075388	3.8842381	-0.5008146
C	-0.5366997	5.2361086	0.7305630
H	-1.3976937	5.9028121	0.8189657
H	0.3781818	5.8312448	0.6766592
H	-0.5018955	4.5725360	1.5980827
O	5.4299380	-0.0541138	-5.8833765
H	5.2926477	-0.8616955	-5.3595226
C	4.1544817	0.3847421	-6.3133879
H	4.2731201	1.2941218	-6.9071661
H	3.5294933	0.5994101	-5.4430959
H	3.6892517	-0.3904578	-6.9271930
O	3.5768109	-2.8979615	3.1680835
H	3.7148354	-2.3977656	2.3457619
C	4.5436018	-3.9318692	3.1934409
H	4.4159164	-4.5154313	4.1081929
H	5.5453916	-3.4956243	3.1790072
H	4.4053604	-4.5825625	2.3264818
O	1.5486165	-1.9459769	4.1960173
H	1.8184716	-1.0638634	4.5034482
C	0.1448007	-1.9123627	4.0158395
H	-0.1925620	-2.8920204	3.6693187
H	-0.1095763	-1.1565844	3.2687166
H	-0.3399928	-1.6778475	4.9666855
O	3.1214890	2.9475857	-3.8095392
H	3.0762988	2.3327842	-4.5614945
C	1.9175748	3.6924896	-3.8082034
H	1.9357467	4.3957493	-2.9723117
H	1.0685658	3.0143215	-3.6925625
H	1.8298988	4.2466830	-4.7459203
O	2.3328765	1.4332337	-6.1060766
H	1.7672342	1.1239804	-5.3781544
C	1.6981191	1.0578699	-7.3145790
H	2.3099818	1.3916200	-8.1559197
H	0.7143424	1.5300346	-7.3724129
H	1.5949866	-0.0294189	-7.3505984
O	3.5697635	0.9969445	-6.3198965
H	3.3523811	0.3188347	-5.6578001
C	3.7467617	2.2167743	-5.6234914
H	3.9931002	3.0030493	-6.3409230
H	4.5641052	2.1123455	-4.9057551
H	2.8219149	2.4779275	-5.1033107
O	4.5618870	-2.1471825	-6.1021998
H	4.1338128	-1.9981629	-5.2419641
C	4.0642428	-3.3722948	-6.6079105
H	4.5268425	-3.5705839	-7.5776023
H	2.9806182	-3.3034630	-6.7308770
H	4.3125814	-4.1808646	-5.9160482
O	-2.1748704	-0.2554732	-4.6933269
H	-1.7481096	-0.0058546	-3.8560541
C	-1.3657932	-1.2510414	-5.2921014
H	-1.8186166	-1.5550214	-6.2387620
H	-1.2997157	-2.1162402	-4.6278983
H	-0.3685052	-0.8463009	-5.4811313
O	3.2224526	2.0352002	-5.6854764
H	3.4185556	1.2608789	-5.1310130
C	1.8317067	2.2791730	-5.5825385
H	1.5766735	3.1463892	-6.1961451
H	1.5728935	2.4838710	-4.5408018
H	1.2802553	1.4067288	-5.9415276
O	3.9589546	2.0286304	0.6618784
H	3.2443373	1.5795655	1.1447060
C	5.0199481	2.2262765	1.5781326
H	5.8425640	2.7307316	1.0658363
H	5.3647945	1.2590497	1.9518359
H	4.6748094	2.8476363	2.4081459
O	0.9199406	-0.4568516	-6.5506226
H	0.6812272	-0.2307904	-5.6355424
C	2.2881787	-0.1329306	-6.7158284
H	2.5899708	-0.3755748	-7.7374276
H	2.8888531	-0.7151634	-6.0127665
H	2.4345399	0.9354571	-6.5390333
O	-2.5038024	2.3835954	2.1733982
H	-1.5714089	2.1200881	2.0917536
C	-2.5208556	3.7701785	2.4586871
H	-3.5577485	4.1000207	2.5570574
H	-2.0427537	4.3169793	1.6422751
H	-1.9909674	3.9567947	3.3959828
O	-0.5356470	0.4106566	-5.9549126
H	0.0942663	0.3568912	-5.2161445
C	0.1567994	0.9780696	-7.0516594
H	-0.5249659	1.0529632	-7.9020747
H	1.0018442	0.3393572	-7.3200747
H	0.5115269	1.9760922	-6.7828660
O	5.1990533	0.9454713	-0.2615262
H	5.1366604	1.9150011	-0.3012582
C	4.9296109	0.5656383	1.0754183
H	4.9918052	-0.5221973	1.1551988
H	3.9242537	0.8922149	1.3523760
H	5.6681153	1.0203498	1.7402337
O	0.6329060	-5.3185135	-0.8478325
H	0.0315472	-5.9531481	-0.4223137
C	1.7220011	-6.0601856	-1.3656037
H	2.4194828	-5.3744858	-1.8523833
H	1.3557599	-6.7842816	-2.0974870
H	2.2326320	-6.5773074	-0.5495328
O	-2.2988677	-0.8233017	-4.2453291
H	-1.3535112	-0.6540476	-4.3973618
C	-2.6267876	-2.0099376	-4.9443690
H	-3.6863743	-2.2296775	-4.7940043
H	-2.0269418	-2.8382531	-4.5594280
H	-2.4335490	-1.8708521	-6.0108794
O	-1.6032834	-4.8350165	-0.4654494
H	-1.9293866	-5.4020203	0.2540109
C	-2.7259942	-4.4632208	-1.2436405
H	-2.3934039	-3.8230553	-2.0641227
H	-3.4363989	-3.9140584	-0.6208670
H	-3.1999086	-5.3590107	-1.6524147
O	-2.9627759	2.2707070	-1.6840475
H	-3.6318846	2.3204440	-2.3878084
C	-1.8978959	3.1239255	-2.0613297
H	-1.1257498	3.0913524	-1.2890936
H	-2.2676038	4.1474019	-2.1608939
H	-1.4758003	2.7836640	-3.0101122
O	-3.0362705	-0.2240215	-2.6162890
H	-2.2007436	-0.3859142	-3.0865499
C	-3.8193461	0.6216535	-3.4384322
H	-4.7689607	0.8241506	-2.9375866
H	-4.0118840	0.1265101	-4.3933474
H	-3.2893618	1.5628203	-3.6041199
O	-2.6282170	2.2009062	-1.5470573
H	-1.7677401	2.1697547	-1.9987970
C	-2.9780651	3.5660665	-1.4120137
H	-3.9438734	3.6370574	-0.9062530
H	-3.0529240	4.0235661	-2.4015545
H	-2.2191835	4.0805242	-0.8174024
O	-2.7558764	-2.9085008	-1.2095231
H	-2.5345036	-2.5855468	-2.0995537
C	-3.4209167	-4.1479453	-1.3701219
H	-3.6847210	-4.5399439	-0.3850515
H	-2.7587136	-4.8549521	-1.8758187
H	-4.3309204	-4.0008525	-1.9569673
O	2.4516174	-4.3565282	1.2149312
H	3.1602045	-3.8138672	0.8290776
C	3.0606893	-5.2423002	2.1361980
H	2.2892566	-5.8691213	2.5896360
H	3.5652605	-4.6674556	2.9166227
H	3.7805627	-5.8759441	1.6123582
