673
Analysis from 47 .xyz files
C	0.0000000	0.0000000	0.0000000
C	-1.3389838	0.0000000	0.0000000
H	0.5558914	0.9313821	0.0000000
H	0.5685673	-0.9264961	-0.0000626
H	-1.9061489	0.9226189	-0.0000782
C	-2.0970913	-1.2694089	-0.0002143
O	-1.6031322	-2.3841798	-0.0014297
O	-3.4182728	-0.9633199	-0.0028546
C	-4.3117387	-2.0859796	0.0018084
C	-4.5750533	-2.5518580	-1.4178980
H	-5.2480971	-1.7476971	0.4575864
H	-3.9260929	-2.9003997	0.6259773
H	-4.9607918	-1.7281660	-2.0275393
H	-5.3010751	-3.3696635	-1.4293107
H	-3.6526278	-2.8968253	-1.8956597
C	-3.8742929	-9.0316028	-0.4703512
H	-4.6920460	-9.7460910	-0.4712938
H	-4.1381027	-7.9866077	-0.3565294
H	-2.4345795	-10.5238017	-0.7147603
C	-2.6122593	-9.4543904	-0.6053879
C	-1.4200355	-8.6378337	-0.6241561
C	-1.3520001	-7.3070876	-0.5103267
H	-0.4872414	-9.1868408	-0.7451270
H	-2.2185182	-6.6725820	-0.3868107
O	-0.1483438	-6.6515882	-0.5443863
C	-0.2896964	-5.2406243	-0.4072513
H	0.7080335	-4.7938041	-0.4441212
H	-0.7446839	-4.9873447	0.5564352
H	-0.8823295	-4.8274477	-1.2306035
C	-0.3778862	-9.3022830	-3.0042252
H	-0.5863130	-10.3372351	-3.2584825
H	-1.1734726	-8.7478855	-2.5202299
H	1.5594653	-9.3954021	-3.7769904
C	0.8148614	-8.7674021	-3.2887753
C	1.2472802	-7.4152920	-3.0179849
C	0.5386658	-6.4438272	-2.4326707
H	2.2639222	-7.1846656	-3.3332595
H	-0.4768396	-6.5713592	-2.0845453
O	1.0716714	-5.1963681	-2.2342302
C	0.1594134	-4.3066327	-1.5972359
H	0.6563541	-3.3398218	-1.4755838
H	-0.1173646	-4.6784820	-0.6047755
H	-0.7340721	-4.1590747	-2.2134732
C	-2.5964945	-9.2962911	2.4063310
H	-3.1437330	-10.2322703	2.4670535
H	-3.0628815	-8.4924478	1.8487604
H	-1.0080997	-10.0326502	3.5438482
C	-1.4052963	-9.1742985	3.0028859
C	-0.5563070	-8.0048737	3.0162213
C	-0.7996720	-6.8248408	2.4359051
H	0.3778778	-8.1197557	3.5641706
H	-1.6957751	-6.6101804	1.8705493
O	0.0958368	-5.7906200	2.5257899
C	-0.3474524	-4.6220955	1.8419400
H	0.4167857	-3.8485036	1.9601285
H	-1.2829626	-4.2503201	2.2737496
H	-0.4724621	-4.8216113	0.7721719
C	-2.5028139	-10.5977572	-2.3446273
H	-2.6293288	-11.5524232	-2.8464451
H	-1.4852461	-10.2670468	-2.1721398
H	-4.5620697	-10.2940855	-2.1820935
C	-3.5733607	-9.8882810	-1.9700791
C	-3.5757078	-8.6091718	-1.2974805
C	-2.5102761	-7.8931544	-0.9224529
H	-4.5632277	-8.2032170	-1.0826483
H	-1.4896077	-8.2079207	-1.0893813
O	-2.6527860	-6.6863482	-0.2876793
C	-1.4013792	-6.0829990	0.0278462
H	-1.5996099	-5.1309961	0.5287136
H	-0.8272514	-5.8797344	-0.8826023
H	-0.8250441	-6.7172165	0.7100806
C	4.3730826	-7.7106038	-0.5780803
H	5.0452295	-8.4651143	-0.9757571
H	3.3107661	-7.9011409	-0.6767985
H	5.9477217	-6.4962288	0.0582943
C	4.8655947	-6.6094041	0.0002828
C	4.1114146	-5.5187146	0.5748469
C	2.7805414	-5.4032440	0.6374093
H	4.7126357	-4.7145999	0.9968426
H	2.0971745	-6.1450648	0.2482836
O	2.1885018	-4.3090963	1.2135672
C	0.7658137	-4.3759118	1.1804051
H	0.3718733	-3.4729566	1.6557533
H	0.4042964	-5.2451728	1.7403572
H	0.4020893	-4.4076900	0.1476745
C	-2.7635511	-10.4444017	-2.2208902
H	-3.1719528	-11.4371440	-2.3848571
H	-3.4122647	-9.7222216	-1.7390267
H	-0.9299009	-10.9442329	-3.0852187
C	-1.5149948	-10.1590408	-2.6073992
C	-0.8283353	-8.8956785	-2.4627286
C	-1.3096210	-7.7740662	-1.9160834
H	0.1903585	-8.8780644	-2.8475665
H	-2.3063983	-7.6886720	-1.5063886
O	-0.5479262	-6.6366190	-1.8408329
C	-1.2404459	-5.5541202	-1.2258382
H	-0.5699394	-4.6901676	-1.2039343
H	-1.5142435	-5.8033389	-0.1949256
H	-2.1309516	-5.2839313	-1.8036230
C	1.4468469	-8.4079616	2.4891889
H	1.9702234	-9.3417080	2.3064076
H	1.0979049	-7.8644929	1.6188745
H	1.6418089	-8.5853008	4.5603501
C	1.2583796	-7.9771524	3.7416252
C	0.5867201	-6.7649015	4.1513037
C	0.0270920	-5.8452919	3.3578269
H	0.5434339	-6.6031158	5.2274539
H	0.0167595	-5.9131283	2.2789393
O	-0.5824484	-4.7332629	3.8788644
C	-1.1148960	-3.8784600	2.8711853
H	-1.5809659	-3.0206112	3.3644874
H	-1.8819714	-4.3976451	2.2864649
H	-0.3194580	-3.5079571	2.2155606
C	3.0870879	-8.8312017	4.0590222
H	3.6268065	-9.5775181	4.6342873
H	2.1266986	-9.1270384	3.6531912
H	4.5829969	-7.3985149	4.3213824
C	3.6109797	-7.6135506	3.8785335
C	3.0243410	-6.5157561	3.1442193
C	1.8486593	-6.5085558	2.5068874
H	3.6219328	-5.6055539	3.1204832
H	1.1827834	-7.3594632	2.4712067
O	1.4066146	-5.3929423	1.8438407
C	0.1350540	-5.5882012	1.2317843
H	-0.1455007	-4.6592832	0.7269345
H	-0.6279537	-5.8147552	1.9843455
H	0.1825465	-6.3860456	0.4827672
C	3.2982665	-8.7315272	-4.1364823
H	3.9036557	-9.4954256	-4.6152070
H	2.2943278	-9.0157044	-3.8433673
H	4.8181334	-7.3052550	-4.2586289
C	3.7982303	-7.5074701	-3.9329304
C	3.1272737	-6.3871014	-3.3139746
C	1.8816062	-6.3611637	-2.8280624
H	3.7191839	-5.4753782	-3.2465159
H	1.2146894	-7.2117922	-2.8470406
O	1.3630068	-5.2250544	-2.2624317
C	0.0249189	-5.4025018	-1.8067575
H	-0.3141938	-4.4579063	-1.3717695
H	-0.0225555	-6.1749234	-1.0315370
H	-0.6392635	-5.6555155	-2.6402343
C	-4.0143809	-9.8920728	-0.4129999
H	-4.6925907	-10.7395054	-0.3797757
H	-3.9921242	-9.2490787	0.4591406
H	-3.3400737	-10.3759251	-2.3288195
C	-3.2559920	-9.6801991	-1.4945122
C	-2.3097552	-8.6064386	-1.6949850
C	-2.0130719	-7.6225651	-0.8391563
H	-1.7939131	-8.6197643	-2.6540873
H	-2.4687331	-7.5207350	0.1358876
O	-1.0896789	-6.6598456	-1.1556122
C	-0.9169188	-5.7038886	-0.1135442
H	-0.1697469	-4.9752298	-0.4410550
H	-0.5504395	-6.1858330	0.7992966
H	-1.8533092	-5.1711570	0.0844654
C	4.6997794	-5.4407124	2.4746228
H	5.5406436	-6.1163466	2.3494019
H	3.7136080	-5.8887583	2.5104925
H	5.9305569	-3.7551217	2.5306441
C	4.9059392	-4.1228356	2.5766629
C	3.9019491	-3.0972026	2.7457653
C	2.5786839	-3.2703196	2.8321992
H	4.2874945	-2.0804689	2.8070430
H	2.0977884	-4.2372728	2.7827200
O	1.7315633	-2.2043862	2.9928247
C	0.3641644	-2.5979730	3.0629311
H	-0.2428602	-1.6969902	3.1903040
H	0.1919040	-3.2533675	3.9235356
H	0.0542582	-3.0934689	2.1364972
C	-2.9878195	-7.5303792	5.5093778
H	-3.4568895	-8.3890761	5.9803631
H	-3.2361654	-7.3460431	4.4706716
H	-1.9527963	-7.0133150	7.2473477
C	-2.1478702	-6.7569248	6.2064908
C	-1.4468769	-5.5864334	5.7299689
C	-1.5045549	-5.0551523	4.5040468
H	-0.8080628	-5.1003076	6.4660027
H	-2.1074514	-5.4617037	3.7040851
O	-0.7839929	-3.9345248	4.1806088
C	-0.9817957	-3.5279269	2.8296248
H	-0.3771673	-2.6339377	2.6516342
H	-2.0321246	-3.2743063	2.6497873
H	-0.6527201	-4.3094725	2.1362754
C	-1.3190589	-11.0374547	0.1083161
H	-1.4405836	-12.1109867	0.2177468
H	-0.3226874	-10.6398933	0.2624417
H	-3.3379269	-10.7513291	-0.3405400
C	-2.3700310	-10.2703469	-0.2026762
C	-2.3756281	-8.8365063	-0.3831892
C	-1.3333430	-8.0057475	-0.2738610
H	-3.3444509	-8.4074619	-0.6350834
H	-0.3322693	-8.3316943	-0.0282655
O	-1.4761140	-6.6566555	-0.4718383
C	-0.2512816	-5.9472959	-0.3099743
H	-0.4480029	-4.8853118	-0.4830737
H	0.4920151	-6.2831338	-1.0411231
H	0.1339963	-6.0642362	0.7087130
C	3.2612493	-6.1595507	5.9909818
H	3.8350290	-6.4674490	6.8599985
H	2.4718009	-6.8266069	5.6648330
H	4.3523148	-4.3933879	5.7686917
C	3.5412759	-5.0053866	5.3751867
C	2.8767482	-4.4562940	4.2152663
C	1.8576602	-4.9965401	3.5384615
H	3.2644341	-3.4979539	3.8725837
H	1.4023899	-5.9422073	3.7975937
O	1.3158005	-4.3670096	2.4477245
C	0.2425569	-5.1032295	1.8682990
H	-0.1328418	-4.5384340	1.0100715
H	-0.5768139	-5.2250925	2.5849834
H	0.5884098	-6.0798702	1.5127759
C	0.4563114	-8.2273185	-4.3215949
H	0.5887377	-8.7292332	-5.2754079
H	1.0532948	-7.3393588	-4.1492456
H	-0.9718882	-9.6073221	-3.6773868
C	-0.4109440	-8.7083433	-3.4237105
C	-0.7018349	-8.1618842	-2.1178469
C	-0.1604106	-7.0736952	-1.5600159
H	-1.4456184	-8.7120999	-1.5432197
H	0.5846299	-6.4600898	-2.0469554
O	-0.5274808	-6.6610102	-0.3051937
C	0.1622092	-5.4847225	0.1074572
H	-0.1840096	-5.2220998	1.1112673
H	-0.0607225	-4.6478844	-0.5632583
H	1.2421467	-5.6625610	0.1515729
C	3.1908980	5.9160630	-3.6411336
H	3.8489192	6.7582053	-3.8335364
H	2.8353645	5.3660331	-4.5046317
H	3.2566753	6.2051077	-1.5744226
C	2.8544669	5.5991300	-2.3857131
C	1.9953351	4.5163735	-1.9637582
C	1.3746407	3.6273001	-2.7465468
H	1.8519629	4.4344927	-0.8872418
H	1.4523997	3.6231531	-3.8248061
O	0.5824546	2.6429632	-2.2144287
C	0.0130948	1.7999846	-3.2118363
H	-0.6005869	1.0462416	-2.7101002
H	0.7961138	1.2845497	-3.7784613
H	-0.6310942	2.3752481	-3.8855796
C	0.1529987	-6.7568744	-1.0951748
H	0.5187944	-6.9203583	-0.0858775
H	0.1805173	-7.6054839	-1.7687254
H	-0.2959077	-4.7530634	-0.7178255
C	-0.3033099	-5.5527329	-1.4578572
C	-0.8206425	-5.1739206	-2.7529954
C	-0.9412671	-5.9535742	-3.8328386
H	-1.1411299	-4.1363363	-2.8357865
H	-0.6523835	-6.9951250	-3.8534612
O	-1.4515789	-5.4657486	-5.0080985
C	-1.4972104	-6.4514695	-6.0356575
H	-1.9133675	-5.9868689	-6.9342298
H	-2.1470654	-7.2845407	-5.7466304
H	-0.4909627	-6.8148278	-6.2707621
C	-0.0720251	6.8904725	0.5451928
H	-0.6108016	7.7075920	1.0155650
H	0.9421467	7.0950941	0.2224678
H	-1.6848986	5.5790508	0.7400781
C	-0.6613296	5.6999599	0.3867219
C	-0.0855029	4.5190700	-0.2153059
C	1.1434033	4.3922973	-0.7273502
H	-0.7413592	3.6500761	-0.2444533
H	1.8686241	5.1937907	-0.7465885
O	1.5674512	3.2078936	-1.2723267
C	2.9035115	3.2781767	-1.7618252
H	3.1651009	2.3008697	-2.1776554
H	3.6033868	3.5053023	-0.9503793
H	2.9866779	4.0247096	-2.5590764
C	-10.0316880	0.5784313	4.4654094
H	-10.6147638	1.3685668	4.9290073
H	-10.3807869	-0.4370906	4.6117347
H	-8.6580135	1.9265180	3.6561822
C	-8.9392830	0.8784103	3.7538078
C	-8.0607867	-0.0493293	3.0784867
C	-8.1727441	-1.3813166	3.0366940
H	-7.2235147	0.4079676	2.5531274
H	-8.9662428	-1.9301331	3.5244105
O	-7.2645064	-2.1497362	2.3553252
C	-7.5589793	-3.5415256	2.4315710
H	-6.7939417	-4.0823309	1.8670182
H	-8.5346493	-3.7576014	1.9829788
H	-7.5299500	-3.8887081	3.4700600
C	-2.9262118	-6.7384101	-0.3055307
H	-3.6144793	-6.1470546	-0.9020211
H	-3.2244570	-7.7555346	-0.0795371
H	-1.5501539	-5.1751666	-0.1575353
C	-1.7728698	-6.2064325	0.1146065
C	-0.7559762	-6.8554006	0.9103972
C	-0.7746715	-8.1085308	1.3770730
H	0.1106130	-6.2382229	1.1433400
H	-1.5871276	-8.7997651	1.2015250
O	0.2620640	-8.6037844	2.1250913
C	0.0514125	-9.9547147	2.5253648
H	0.9165468	-10.2738204	3.1137415
H	-0.0314585	-10.6105505	1.6519419
H	-0.8419582	-10.0392590	3.1535200
C	-8.9429541	2.8624601	-4.7802058
H	-9.8577796	3.4432000	-4.8512684
H	-8.2417885	2.9520906	-5.6017282
H	-9.4804572	2.0507172	-2.9332267
C	-8.7226467	2.0830758	-3.7154346
C	-7.5647363	1.2536461	-3.4708843
C	-6.4956057	1.1079325	-4.2609466
H	-7.5866466	0.6957078	-2.5358056
H	-6.3780000	1.6166901	-5.2075413
O	-5.4585105	0.2834881	-3.9083091
C	-4.4180646	0.2663130	-4.8813368
H	-3.6338027	-0.4096864	-4.5285894
H	-3.9830387	1.2642172	-5.0029730
H	-4.7895274	-0.1087832	-5.8411056
C	-1.6433438	-4.7458308	2.7952418
H	-1.8859675	-3.7560510	2.4201628
H	-1.9881822	-4.9885199	3.7936177
H	-0.6414377	-5.2766824	1.0420880
C	-0.9500970	-5.6012208	2.0353538
C	-0.5493225	-6.9450590	2.3846299
C	-0.7948284	-7.5875561	3.5315367
H	0.0124999	-7.4730830	1.6154136
H	-1.3427535	-7.1519073	4.3553664
O	-0.3549147	-8.8698668	3.7359455
C	-0.7175442	-9.3748813	5.0177667
H	-0.3327179	-10.3952754	5.1024860
H	-1.8067912	-9.4076641	5.1287716
H	-0.2697106	-8.7710500	5.8144289
C	-9.4170308	2.5850785	-4.0549620
H	-10.1886920	2.8018022	-4.7876176
H	-8.4267878	2.9762111	-4.2574468
H	-10.7302881	1.5109401	-2.8381014
C	-9.7081602	1.8664434	-2.9647692
C	-8.8018412	1.4937839	-1.9025894
C	-7.5025273	1.7959148	-1.8078730
H	-9.2468047	0.9030627	-1.1030873
H	-6.9682174	2.3760200	-2.5472633
O	-6.7515975	1.3771496	-0.7399929
C	-5.3941963	1.8010479	-0.8258863
H	-4.8655244	1.4296159	0.0567332
H	-5.3279987	2.8944092	-0.8317808
H	-4.9122104	1.3836927	-1.7165836
C	-7.4411270	6.2517381	2.4478492
H	-7.8894474	7.0819428	2.9854211
H	-6.9733800	5.4778716	3.0452678
H	-7.9721816	7.0361144	0.5872303
C	-7.4816228	6.2163253	1.1111297
C	-6.9360844	5.1897989	0.2525573
C	-6.2884198	4.0824556	0.6304361
H	-7.0795696	5.3567874	-0.8140609
H	-6.0953528	3.8256479	1.6626580
O	-5.8187349	3.1840160	-0.2925106
C	-5.1595158	2.0743226	0.3104955
H	-4.8165333	1.4084307	-0.4866392
H	-5.8482318	1.5153402	0.9531967
H	-4.2857188	2.4050287	0.8822908
C	-0.9927586	4.0305703	5.7340801
H	-0.3689215	4.6226479	6.3970174
H	-1.4309831	3.1305109	6.1493127
H	-0.7122836	5.3406386	4.1327611
C	-1.1907262	4.4217053	4.4701437
C	-1.9873720	3.7510644	3.4680902
C	-2.6766501	2.6143226	3.6136407
H	-2.0151146	4.2424782	2.4965500
H	-2.7133005	2.0513211	4.5358083
O	-3.3962623	2.0817187	2.5753154
C	-4.0577445	0.8714670	2.9321595
H	-4.6058447	0.5125586	2.0562350
H	-4.7764273	1.0449631	3.7403983
H	-3.3329132	0.1034125	3.2229336
C	0.3998895	-4.6514751	-2.1006230
H	-0.3550249	-3.8757219	-2.0138720
H	0.8382912	-4.7997721	-3.0806117
H	0.2586302	-5.1579083	-0.0800442
C	0.7493632	-5.3720265	-1.0289949
C	1.7296158	-6.4326751	-0.9775718
C	2.4721228	-6.8944646	-1.9894535
H	1.8614655	-6.8913437	0.0014004
H	2.4162079	-6.5072897	-2.9972611
O	3.3714797	-7.9125112	-1.8040716
C	4.0613893	-8.2578989	-3.0017098
H	4.7552691	-9.0716098	-2.7717567
H	4.6409142	-7.4069439	-3.3757183
H	3.3604524	-8.6092985	-3.7665912
C	-4.8306121	0.2033230	4.5358403
H	-4.6249350	-0.7240328	5.0620745
H	-5.2609239	1.0104071	5.1172292
H	-4.1218562	-0.5492075	2.7218583
C	-4.5540354	0.3114585	3.2314151
C	-4.7662400	1.4682302	2.3915559
C	-5.2783847	2.6480029	2.7580462
H	-4.4697196	1.3430210	1.3511012
H	-5.6023183	2.8723015	3.7647558
O	-5.4268609	3.6693884	1.8556304
C	-5.9888149	4.8399555	2.4417924
H	-6.0743000	5.6028732	1.6626123
H	-5.3393300	5.2283147	3.2337533
H	-6.9907307	4.6354722	2.8344617
C	-4.9357300	0.3137173	3.0473227
H	-4.3967598	0.5536547	2.1356454
H	-4.4593352	-0.3818438	3.7283576
H	-6.5368965	1.5578939	2.5498710
C	-6.1293266	0.8678695	3.2880620
C	-6.9684982	0.6544812	4.4451150
C	-6.7118119	-0.1359081	5.4929068
H	-7.9068062	1.2073984	4.4422273
H	-5.8106413	-0.7249922	5.5907771
O	-7.5990871	-0.2489945	6.5319362
C	-7.1419786	-1.1374286	7.5474865
H	-7.9003512	-1.1726668	8.3349521
H	-6.2059112	-0.7765257	7.9872393
H	-7.0124001	-2.1495254	7.1491058
C	-6.7046255	7.0208550	-2.2712709
H	-7.0086176	8.0337587	-2.5179069
H	-6.2951787	6.4232170	-3.0773403
H	-7.2636879	7.2306873	-0.2706241
C	-6.8424512	6.5632090	-1.0217601
C	-6.4888258	5.2496201	-0.5339605
C	-5.9576856	4.2439807	-1.2375587
H	-6.6848050	5.0827787	0.5242944
H	-5.7260902	4.3087331	-2.2915405
O	-5.6678691	3.0401957	-0.6488853
C	-5.1098542	2.1031863	-1.5655304
H	-4.9080314	1.1753118	-1.0225852
H	-4.1641759	2.4752285	-1.9743492
H	-5.8155770	1.8823862	-2.3736395
C	-1.2650865	-4.4272937	3.1893666
H	-1.0438254	-3.7330426	2.3842125
H	-1.9537172	-5.2334066	2.9645656
H	-0.0159627	-3.4285999	4.5315544
C	-0.6976058	-4.2667789	4.3901637
C	-0.8860523	-5.0971447	5.5578518
C	-1.6619749	-6.1816025	5.6596685
H	-0.3256862	-4.7874955	6.4389050
H	-2.2567141	-6.5698011	4.8446262
O	-1.7515956	-6.8835380	6.8339268
C	-2.6276720	-8.0027612	6.7367916
H	-2.6444398	-8.5066468	7.7075083
H	-2.2674969	-8.7143672	5.9859610
H	-3.6469004	-7.6792004	6.4994743
C	0.0941822	-5.9856272	0.5694665
H	0.6283876	-5.0411914	0.6128243
H	0.6924264	-6.8804772	0.4433183
H	-1.7646313	-5.0620536	0.7952807
C	-1.2396279	-6.0085666	0.6701512
C	-2.0936294	-7.1737772	0.6316716
C	-1.7135653	-8.4479406	0.4883889
H	-3.1584517	-6.9683017	0.7320752
H	-0.6828251	-8.7559076	0.3814399
O	-2.6321503	-9.4654953	0.4680957
C	-2.0274265	-10.7453248	0.3070017
H	-2.8210906	-11.4980076	0.3007863
H	-1.3523256	-10.9641077	1.1414047
H	-1.4899729	-10.8042093	-0.6456336
C	-5.8271691	0.9418307	1.7166353
H	-4.7506137	0.7996900	1.7104157
H	-6.3717277	0.5166997	2.5516715
H	-5.7995717	2.0098425	-0.0771754
C	-6.4219719	1.6147994	0.7251537
C	-7.8341043	1.8889694	0.5864898
C	-8.8126011	1.5227650	1.4213008
H	-8.1083559	2.4567037	-0.3015481
H	-8.6448933	0.9583462	2.3279498
O	-10.1201840	1.8497840	1.1704745
C	-11.0070377	1.3689303	2.1763949
H	-12.0234150	1.6687064	1.9051307
H	-10.7665219	1.8099055	3.1498160
H	-10.9744086	0.2755126	2.2330599
C	-2.0262371	-6.7061250	-0.4371486
H	-1.9353490	-6.6934634	-1.5191806
H	-2.6506350	-7.4810097	-0.0079089
H	-0.7767589	-5.0488683	-0.2102724
C	-1.3846743	-5.7940392	0.3019114
C	-1.4018061	-5.6750166	1.7420694
C	-2.0609395	-6.4524811	2.6078427
H	-0.8063942	-4.8564303	2.1440007
H	-2.6778589	-7.2889443	2.3104428
O	-1.9916768	-6.2291740	3.9587553
C	-2.7624159	-7.1641165	4.7080546
H	-2.6555272	-6.9200585	5.7689426
H	-2.3959407	-8.1843736	4.5511243
H	-3.8231485	-7.0936748	4.4440053
C	-2.5490130	3.8401082	-0.9934796
H	-3.4139550	3.2822584	-0.6472234
H	-2.3609929	4.7956514	-0.5179257
H	-2.0332409	2.3739575	-2.3875920
C	-1.7727360	3.3429984	-1.9630098
C	-0.5941454	3.9558939	-2.5320426
C	-0.0566647	5.1340838	-2.1981949
H	-0.1069901	3.3779112	-3.3161109
H	-0.4636163	5.7818417	-1.4343185
O	1.0713851	5.6025043	-2.8208615
C	1.4837591	6.8721376	-2.3232830
H	2.3834695	7.1744796	-2.8669589
H	1.7300229	6.8107646	-1.2577113
H	0.7086368	7.6270329	-2.4940352
C	-7.3581361	6.2572356	1.9499998
H	-7.8942902	7.2011307	1.9785504
H	-7.0710010	5.8289258	2.9032417
H	-7.4062275	6.1754707	-0.1357062
C	-7.0809601	5.6769528	0.7769021
C	-6.3804910	4.4301590	0.5686632
C	-5.8772950	3.6212222	1.5072185
H	-6.2609419	4.1371474	-0.4734500
H	-5.9434379	3.8218823	2.5674391
O	-5.2310308	2.4595044	1.1719838
C	-4.7701889	1.7410577	2.3126259
H	-4.2693122	0.8335531	1.9632969
H	-5.6095887	1.4464268	2.9517319
H	-4.0470753	2.3361149	2.8808261
C	-4.9784835	-8.9306552	5.7225934
H	-5.4633467	-9.5839878	6.4418141
H	-5.2297482	-7.8775465	5.7715194
H	-3.9203474	-10.5054791	4.8511314
C	-4.1167634	-9.4339324	4.8316030
C	-3.3931289	-8.7044859	3.8153472
C	-3.4473240	-7.3904051	3.5730139
H	-2.7386270	-9.3108307	3.1907506
H	-4.0645812	-6.7037698	4.1353594
O	-2.7041919	-6.8213135	2.5712569
C	-2.9021065	-5.4137522	2.4753048
H	-2.2789342	-5.0376777	1.6587897
H	-2.5952666	-4.9140643	3.4005166
H	-3.9477185	-5.1830398	2.2444257
C	-5.0500681	7.4751693	2.5067512
H	-5.4231644	8.4945517	2.5363000
H	-5.0748530	6.9182414	3.4361504
H	-4.5992805	7.5903260	0.4713894
C	-4.5885785	6.9613362	1.3610131
C	-4.0615001	5.6314858	1.1555836
C	-3.9351961	4.6638005	2.0699706
H	-3.7381271	5.4159539	0.1381735
H	-4.2262635	4.7775537	3.1048845
O	-3.4157189	3.4384844	1.7407719
C	-3.3652272	2.5490563	2.8525155
H	-2.9418579	1.6004114	2.5100186
H	-4.3706542	2.3563501	3.2421777
H	-2.7192532	2.9491924	3.6414682
C	-0.0287467	4.0835748	0.3289225
H	-0.8372096	3.4762081	0.7247856
H	-0.2939481	4.8264906	-0.4142533
H	1.4040732	3.1286092	1.5097001
C	1.2241982	3.8980760	0.7595410
C	2.4036524	4.6178714	0.3361057
C	2.4665407	5.6041738	-0.5648514
H	3.3305426	4.3066722	0.8158735
H	1.6050786	5.9849073	-1.0955416
O	3.6578859	6.2065579	-0.8770338
C	3.5128596	7.2310506	-1.8563129
H	4.5007167	7.6593207	-2.0491744
H	2.8575373	8.0287970	-1.4902404
H	3.1270178	6.8195245	-2.7952539
C	4.9702567	-2.4043261	-3.9448468
H	5.4460575	-3.2650989	-4.4051708
H	5.5597293	-1.4973435	-3.8779844
H	3.1925568	-3.4431605	-3.5987637
C	3.7145386	-2.4927346	-3.4920014
C	2.9439093	-1.4468765	-2.8588930
C	3.3388694	-0.1944822	-2.6059380
H	1.9349390	-1.7318964	-2.5641214
H	4.3187087	0.1859271	-2.8587432
O	2.5031225	0.7045428	-1.9952749
C	3.1098654	1.9809597	-1.8157523
H	2.3841052	2.6365159	-1.3258634
H	3.3766197	2.4238761	-2.7814246
H	3.9933276	1.9044684	-1.1727271
C	1.6431221	-4.5902189	0.0873805
H	1.1163439	-3.6672437	-0.1358592
H	2.7039163	-4.5100399	0.2943892
H	-0.0830532	-5.7460647	-0.1212035
C	0.9841705	-5.7544263	0.0981967
C	1.5349591	-7.0616557	0.3744178
C	2.8054784	-7.3553065	0.6711011
H	0.8196978	-7.8817991	0.3306719
H	3.5900566	-6.6146737	0.7389756
O	3.1985873	-8.6462621	0.9130250
C	4.5881537	-8.7484736	1.2101171
H	4.8208618	-9.8021004	1.3895339
H	4.8348579	-8.1827256	2.1150600
H	5.1928751	-8.4016235	0.3652235
C	1.7496180	-3.8494052	-2.0034559
H	0.9951283	-3.2384441	-1.5169516
H	2.7009220	-3.3752633	-2.2150590
H	0.5020292	-5.5223847	-2.0653432
C	1.4851826	-5.1236346	-2.3134982
C	2.3743166	-6.0632671	-2.9577392
C	3.6278697	-5.8379639	-3.3655559
H	1.9573311	-7.0564480	-3.1185565
H	4.1318479	-4.8883060	-3.2521405
O	4.3673392	-6.8232899	-3.9671749
C	5.6741993	-6.3843877	-4.3264618
H	6.1967379	-7.2221079	-4.7972601
H	6.2400681	-6.0809559	-3.4390062
H	5.6233589	-5.5615490	-5.0477033
C	-1.5576029	-6.4685378	-2.7825325
H	-0.7870636	-5.7162672	-2.9224338
H	-1.5007679	-7.3495398	-3.4111589
H	-2.5007720	-5.3701653	-1.2781463
C	-2.5174518	-6.2856134	-1.8687810
C	-3.6070003	-7.1840465	-1.5618330
C	-3.8622213	-8.3666302	-2.1317707
H	-4.2808883	-6.8404763	-0.7782629
H	-3.2549306	-8.7954770	-2.9166245
O	-4.9368290	-9.1248913	-1.7446191
C	-5.0343126	-10.3466977	-2.4707676
H	-5.9105603	-10.8901879	-2.1056906
H	-4.1489428	-10.9697323	-2.3040229
H	-5.1703293	-10.1534633	-3.5403459
C	-8.3681276	-1.4751836	-1.2649571
H	-7.7387315	-1.4086781	-2.1473696
H	-8.6857350	-0.5397630	-0.8192219
H	-8.3536376	-3.5628867	-1.2862424
C	-8.7167845	-2.6708991	-0.7766788
C	-9.5425065	-2.9291671	0.3809031
C	-10.1138136	-2.0237363	1.1823235
H	-9.7036603	-3.9824222	0.6063591
H	-10.0149329	-0.9561001	1.0441840
O	-10.8785140	-2.4054988	2.2542929
C	-11.3960856	-1.2944661	2.9804690
H	-11.9905532	-1.6800874	3.8137621
H	-12.0482692	-0.6849015	2.3456909
H	-10.5832739	-0.6853868	3.3905876
C	-3.1237173	4.8476139	6.2695114
H	-3.1612096	5.7120280	6.9257104
H	-2.7300224	3.9301929	6.6913037
H	-3.9326396	5.9050772	4.6612254
C	-3.5511695	4.9442919	5.0055293
C	-3.5681272	3.8951747	4.0117584
C	-3.1605506	2.6309024	4.1665742
H	-3.9593119	4.1884602	3.0385648
H	-2.7575492	2.2416810	5.0911301
O	-3.2314016	1.7301247	3.1354546
C	-2.7497008	0.4403659	3.5016407
H	-2.8391419	-0.2157641	2.6310279
H	-3.3501543	0.0174287	4.3143124
H	-1.6940518	0.4871414	3.7901801
C	-5.5840937	2.1579393	-4.3676288
H	-5.2377987	1.4875224	-5.1485483
H	-6.1074504	3.0516347	-4.6869595
H	-4.8244811	0.9450240	-2.8474337
C	-5.3589991	1.8650908	-3.0818274
C	-5.7517863	2.6466074	-1.9314078
C	-6.4135842	3.8087132	-1.9336191
H	-5.4676519	2.2243330	-0.9685478
H	-6.7395225	4.3093336	-2.8346465
O	-6.7260481	4.4507524	-0.7632432
C	-7.4302068	5.6702104	-0.9793180
H	-7.6411485	6.1184003	-0.0040733
H	-8.3834381	5.4841903	-1.4858772
H	-6.8209246	6.3738780	-1.5567821
C	-7.3153914	-0.6747960	3.8026441
H	-6.3550848	-0.2255261	4.0375530
H	-8.1993710	-0.1203353	4.0954226
H	-6.4321576	-2.3487508	2.9212014
C	-7.3697012	-1.8579322	3.1805892
C	-8.5590649	-2.5852127	2.7998112
C	-9.8288172	-2.2144113	2.9965507
H	-8.3778422	-3.5356309	2.2998002
H	-10.1136933	-1.2915459	3.4822174
O	-10.8715181	-3.0028910	2.5833890
C	-12.1416863	-2.4325581	2.8850490
H	-12.9156485	-3.1171357	2.5261497
H	-12.2678923	-1.4721015	2.3737265
H	-12.2656840	-2.3095841	3.9664092
C	-6.3573235	-7.1525536	-3.9608818
H	-6.8482523	-6.9249563	-4.9023714
H	-5.6698244	-7.9903494	-3.9578872
H	-7.3168111	-5.5885607	-2.9646501
C	-6.6113189	-6.4140096	-2.8747179
C	-6.0448713	-6.5850066	-1.5562293
C	-5.1609308	-7.5121688	-1.1721845
H	-6.3894561	-5.8701651	-0.8103002
H	-4.7582598	-8.2651678	-1.8351743
O	-4.7010534	-7.5641512	0.1183342
C	-3.7682924	-8.6210428	0.3245923
H	-3.4511114	-8.5951675	1.3711101
H	-2.8831292	-8.4870435	-0.3065861
H	-4.2333739	-9.5935001	0.1300065
