151
Analysis from 36 .xyz files
C	0.0000000	0.0000000	0.0000000
H	-1.0835497	0.0000000	0.0000000
C	0.7457435	1.1053384	0.0000000
H	0.2726271	2.0824437	0.0000002
H	1.8290908	1.0746606	-0.0000030
O	0.5011031	-1.2692867	0.0000008
H	1.4727300	-1.2209927	-0.0000169
C	4.3620965	-1.1245915	-2.8240854
H	4.1822344	-0.2761097	-3.5033936
H	4.9268178	-1.9665750	-3.2552575
O	3.9610893	-1.1313764	-1.6669829
C	5.1335161	-1.8880252	0.3123339
H	4.8227946	-1.7372946	1.3585002
H	6.2042317	-2.0985624	0.1606829
O	4.3416284	-1.8257135	-0.6197444
C	3.4221376	-4.2931822	-1.5074307
H	4.1386946	-4.4945604	-2.3196648
H	2.6450345	-5.0598681	-1.3589067
O	3.4852136	-3.2844837	-0.8158472
C	2.7047242	-0.0282057	-3.6246742
H	2.4399205	0.9500939	-4.0565773
H	2.6547265	-0.8826614	-4.3183323
O	3.0327457	-0.1572646	-2.4518637
C	-0.0070981	-3.9306824	1.7565516
H	0.1087497	-4.1625923	0.6857910
H	-0.9927959	-4.1651407	2.1892004
O	0.8992602	-3.4447380	2.4214662
C	-0.0070981	-3.9306824	1.7565516
H	0.1087497	-4.1625923	0.6857910
H	-0.9927959	-4.1651407	2.1892004
O	0.8992602	-3.4447380	2.4214662
C	4.0638824	-2.6518004	-2.3399286
H	4.2385028	-1.6177147	-2.6774279
H	4.3086940	-3.4378971	-3.0719636
O	3.6268449	-2.9102165	-1.2254968
C	-0.5928807	-2.2764209	-2.8167754
H	-1.4434119	-1.6718645	-2.4634490
H	-0.3605492	-3.1679017	-2.2125901
O	0.0512798	-1.9774658	-3.8144838
C	-0.7756453	-4.6105424	-1.3750999
H	-0.3377264	-3.6342618	-1.6374629
H	-1.4165979	-4.6180292	-0.4790643
O	-0.5640998	-5.6200157	-2.0353658
C	0.4323330	-4.5043713	2.1772719
H	-0.3128289	-5.1441270	2.6764489
H	0.1263069	-3.4589430	2.0123980
O	1.5276560	-4.9270590	1.8289307
C	0.6140477	-2.6636710	-3.7324439
H	-0.2272587	-2.7196096	-4.4415318
H	0.3355505	-2.6287327	-2.6670921
O	1.7808671	-2.6417905	-4.1036483
C	-2.0386947	-4.3288491	-0.1285737
H	-1.8371560	-4.5186736	-1.1949132
H	-1.4250251	-3.5416754	0.3378203
O	-2.8881244	-4.9512652	0.4965715
C	-1.5008025	-4.3195649	-1.1363653
H	-0.7002490	-3.9751506	-0.4624038
H	-2.4640097	-3.7941213	-1.0368823
O	-1.3313354	-5.2259370	-1.9422869
C	-4.0121948	0.5658555	-1.1427985
H	-3.3100950	1.3368631	-1.4982343
H	-4.4195112	0.7245287	-0.1315260
O	-4.3193651	-0.4028586	-1.8261568
C	5.4813549	0.2297760	-1.1166671
H	4.6494420	0.1460211	-0.3992849
H	6.4345113	-0.2177993	-0.7927455
O	5.3550368	0.7834066	-2.2016905
C	3.3487901	-1.6314868	-2.9627125
H	2.5480827	-0.8969979	-2.7807101
H	3.8462479	-2.0246061	-2.0617414
O	3.6647806	-1.9871993	-4.0911440
C	4.3852997	-1.8488291	-1.5231370
H	4.3428014	-1.9654769	-0.4284597
H	3.7059239	-2.4994098	-2.0966779
O	5.1374716	-1.0493944	-2.0661662
C	4.2945472	-0.1193433	-2.7144434
H	3.6604390	-0.6042858	-1.9551879
H	5.1560284	0.4451505	-2.3233518
O	4.0576433	-0.2022270	-3.9130867
C	4.7142543	-3.0650355	0.8352459
H	4.1536279	-2.1293316	0.9898017
H	5.0584574	-3.2476153	-0.1952612
O	4.9397734	-3.8497853	1.7479603
C	4.5773285	-2.4280816	-1.4489612
H	4.1571021	-2.1674696	-2.4334521
H	4.3579649	-1.7176923	-0.6359529
O	5.2437691	-3.4398439	-1.2702630
C	1.2074403	3.2077316	3.0318877
H	1.0538099	3.9941420	3.7879879
H	1.7972226	3.5054514	2.1502553
O	0.7529868	2.0780833	3.1626763
C	0.4794879	-0.0632153	-3.5988366
H	0.2486953	0.0638087	-4.6685706
H	1.0536232	0.7555457	-3.1365001
O	0.1217365	-1.0486982	-2.9659255
C	5.0955326	-0.3608582	1.0765042
H	4.9146143	0.5846766	0.5408142
H	4.2234379	-1.0273997	1.1710001
O	6.1927464	-0.6515795	1.5362235
C	2.9735769	-0.4559186	-2.7167285
H	3.9004046	-0.8011921	-2.2314368
H	2.8506376	0.6369435	-2.7822581
O	2.1359323	-1.2348791	-3.1541197
C	4.9138966	-1.7904135	0.6958196
H	4.2957702	-0.9194071	0.9660028
H	5.3098197	-1.7910722	-0.3322855
O	5.1454391	-2.6973060	1.4855494
C	4.2543060	-0.2232799	-2.0891588
H	3.5828700	-1.0958849	-2.1274409
H	4.7038947	-0.0129232	-1.1056061
O	4.4854785	0.4667784	-3.0741043
C	4.8690590	0.2461805	-0.0350581
H	4.4079678	-0.3298924	-0.8531451
H	4.4721354	0.0416195	0.9720975
O	5.7630963	1.0595877	-0.2320476
C	4.4605920	-1.8525517	1.0336809
H	4.7883294	-1.2149820	0.1971259
H	3.8604399	-1.3485264	1.8079753
O	4.7444324	-3.0420739	1.0985683
C	2.2468478	-3.7671809	-1.3774252
H	2.5734379	-3.0829524	-2.1767385
H	2.9448408	-3.8774345	-0.5321999
O	1.1792539	-4.3652568	-1.4252489
C	0.7201494	-4.7795760	-0.9441417
H	0.2101226	-5.6128882	-0.4350299
H	1.8205335	-4.8323104	-0.9555337
O	0.1050224	-3.8563264	-1.4627630
C	2.1225812	-1.2931681	-3.5204581
H	2.8046485	-2.1255837	-3.2846614
H	2.4795340	-0.5903094	-4.2900882
O	1.0399382	-1.1581600	-2.9642246
C	-0.8342992	-1.9933341	-3.7235130
H	-0.1071008	-1.5378061	-4.4144602
H	-1.8587669	-2.0994220	-4.1146230
O	-0.5245651	-2.3574512	-2.5960280
C	-1.2014081	-4.7723289	0.5003063
H	-1.0431892	-5.8325059	0.7547128
H	-1.9692324	-4.5772455	-0.2652943
O	-0.5662208	-3.8709062	1.0329535
C	0.7694049	1.8427603	-4.0991139
H	0.1441124	1.5818609	-4.9678325
H	1.6788877	2.4218389	-4.3255315
O	0.4732964	1.5112331	-2.9579967
C	-0.9241127	-2.2878125	-3.3416173
H	-1.0303590	-1.1934459	-3.4109338
H	-1.1351830	-2.8449767	-4.2683175
O	-0.5934735	-2.8475817	-2.3037951
C	-2.0059695	-4.5626282	-0.1727550
H	-2.9226224	-4.3817655	-0.7565081
H	-2.0346622	-5.4364118	0.4976439
O	-1.0209287	-3.8406282	-0.2630289
