207
Analysis from 50 .xyz files
C	0.0000000	0.0000000	0.0000000
H	-1.0822792	0.0000000	0.0000000
C	0.7401611	1.1066607	0.0000000
H	0.2806645	2.0883723	0.0000020
H	1.8236469	1.0483231	-0.0000007
O	0.5658643	-1.2418728	-0.0000019
H	-0.1492316	-1.9023014	-0.0000019
C	-0.4497179	-2.7456703	-3.2935134
H	0.4676411	-2.1446507	-3.1888278
H	-0.5928946	-3.2266236	-4.2742989
O	-1.2564095	-2.8707888	-2.3806427
C	-0.2519869	-2.1699562	-3.3694309
H	0.5788434	-2.8930561	-3.3453726
H	-0.1853137	-1.3959532	-4.1506031
O	-1.1871768	-2.2229846	-2.5805414
C	-0.2742262	-1.2484299	-3.2963987
H	-0.3136196	-0.2594601	-3.7802562
H	0.6371344	-1.8361371	-3.4907644
O	-1.1827899	-1.6665511	-2.5896983
C	0.6303603	-3.4499948	-2.3060034
H	1.4875094	-4.1015624	-2.0725802
H	0.8803007	-2.4903048	-2.7858793
O	-0.5232116	-3.7710392	-2.0492131
C	-0.0696200	-3.6126919	-3.2659856
H	-0.4160087	-3.9397126	-4.2593655
H	0.9712552	-3.8736110	-3.0164742
O	-0.7932488	-3.0000668	-2.4908785
C	2.1835799	-1.7832696	-2.2457289
H	2.0701781	-0.6884480	-2.2930258
H	3.0129641	-2.1480637	-1.6189889
O	1.4375466	-2.5439576	-2.8494897
C	1.7951586	-4.6013976	0.4635822
H	2.3617601	-5.5238292	0.6680675
H	2.1579847	-3.9995541	-0.3848855
O	0.8267095	-4.2673388	1.1345888
C	-0.8039833	-0.4121677	-3.4259111
H	-1.3781576	-0.3464529	-4.3638540
H	0.0522521	0.2762588	-3.3441445
O	-1.0978747	-1.1979613	-2.5337816
C	-2.0892922	-4.0057950	-1.8344774
H	-2.1084623	-3.6602723	-2.8804114
H	-1.7629558	-5.0473037	-1.6844105
O	-2.4093483	-3.2806024	-0.9009901
C	-4.3652289	-0.7925868	-1.4260150
H	-4.0027328	-0.4323638	-2.4020105
H	-5.4599905	-0.8561986	-1.3201541
O	-3.6022351	-1.1016563	-0.5193424
C	0.1705512	-1.3809161	-3.0464382
H	0.8819218	-2.1174288	-2.6399504
H	0.6220552	-0.5273012	-3.5767603
O	-1.0411447	-1.5029218	-2.9174158
C	-2.9483051	-2.4490697	-2.5516414
H	-3.3148360	-3.3721608	-2.0748927
H	-3.1333593	-2.3682878	-3.6346858
O	-2.3735646	-1.5713894	-1.9199061
C	1.6460032	-1.2669124	2.7433699
H	2.2724576	-2.0492527	2.2859533
H	1.9188394	-0.2305226	2.4880029
O	0.7089548	-1.5316112	3.4860769
C	-2.6034963	-2.1305756	-2.5026888
H	-2.1833742	-1.5335327	-3.3277758
H	-2.7853519	-3.1930910	-2.7301653
O	-2.8517684	-1.6455776	-1.4059316
C	2.8138491	-3.1179120	-0.9329098
H	2.9415191	-2.7034366	-1.9456496
H	3.6290980	-2.9002681	-0.2245623
O	1.8313504	-3.7765679	-0.6157228
C	-1.0123409	-2.9177499	-2.9086165
H	-1.0553577	-3.2127197	-3.9692171
H	-0.3440354	-3.5219187	-2.2745002
O	-1.6638720	-1.9808657	-2.4642134
C	-0.1578628	-1.8596957	-3.8840825
H	-0.7168967	-1.3193361	-4.6646105
H	0.8315046	-2.2393501	-4.1853642
O	-0.6062473	-2.0271535	-2.7568522
C	2.8692149	-2.3875122	-2.0378689
H	1.8911263	-2.1322090	-2.4759265
H	3.0601461	-1.9796791	-1.0323973
O	3.6894274	-3.0784882	-2.6290901
C	-0.3210670	-3.3396173	-2.8048471
H	0.7388455	-3.2882186	-3.1009469
H	-1.0232871	-2.7970679	-3.4577506
O	-0.6937915	-3.9584976	-1.8160082
C	0.6572543	-1.2192066	3.2558062
H	1.3088980	-0.6885969	3.9682283
H	1.1542464	-1.9813973	2.6346620
O	-0.5396042	-0.9779168	3.1606863
C	-3.7205818	-0.8564890	-1.7029505
H	-4.7932038	-0.8754282	-1.9536588
H	-3.2297504	0.1259258	-1.7907089
O	-3.1143536	-1.8604031	-1.3502710
C	-3.0374765	-2.7643036	-2.0141322
H	-3.7825099	-2.7695857	-2.8256916
H	-3.2942817	-3.3692377	-1.1299028
O	-1.9935742	-2.1284771	-2.0898390
C	3.3215282	-1.9142478	-1.3200403
H	3.1847732	-2.5858723	-0.4575149
H	3.5589141	-0.8670642	-1.0734425
O	3.2166782	-2.3055584	-2.4757312
C	-4.4927769	-0.2119066	0.5743566
H	-5.5368813	0.0791604	0.3772340
H	-4.1367793	-0.0360259	1.6020178
O	-3.7757709	-0.6984603	-0.2910373
C	1.4218758	-1.0767044	2.7960126
H	1.3534011	0.0006978	2.5763611
H	2.1990790	-1.6259604	2.2410089
O	0.6834033	-1.6270370	3.6031875
C	-1.0258321	-2.1804874	-3.6951505
H	-1.7810670	-2.7909994	-4.2153683
H	-0.0850656	-2.0187701	-4.2452069
O	-1.2191381	-1.7128430	-2.5799464
C	2.1573330	-3.9910986	-1.0831511
H	3.0554099	-3.4499601	-1.4213200
H	2.3084963	-4.6793784	-0.2362884
O	1.0640372	-3.8377893	-1.6131885
C	-1.1115045	0.9096632	3.1278823
H	-0.1958341	0.3732141	2.8320762
H	-1.0600498	1.4412193	4.0914987
O	-2.1192375	0.9147734	2.4320468
C	-4.2295581	0.7281687	-1.4679098
H	-5.2326491	1.1073142	-1.2153457
H	-3.7088184	1.2650782	-2.2768068
O	-3.7269427	-0.2263401	-0.8882293
C	3.2352655	-3.2275219	-0.7071921
H	4.2953096	-3.0610785	-0.9568607
H	2.8937113	-2.7767288	0.2382613
O	2.4865994	-3.8706659	-1.4321775
C	-4.4293278	-1.5620760	-1.5587365
H	-4.2893413	-2.2839831	-2.3790931
H	-5.4703236	-1.4120966	-1.2307274
O	-3.4905035	-0.9661319	-1.0457076
C	2.0397192	-1.0769931	2.9852394
H	2.7135883	-0.9494588	3.8474267
H	2.4608154	-0.7934077	2.0074801
O	0.8987846	-1.5053729	3.1056467
C	-4.6603422	0.6832190	-1.4473134
H	-5.0157113	1.5359337	-0.8470452
H	-5.3163502	0.3823686	-2.2797187
O	-3.6065079	0.1081783	-1.2054453
C	-0.9063984	-0.9123988	-3.7541103
H	0.0488617	-0.5869207	-4.1960078
H	-1.7859822	-0.8320287	-4.4126153
O	-0.9852676	-1.3352895	-2.6075145
C	1.1488899	-1.3013447	3.5670935
H	1.5626490	-1.5957933	2.5894256
H	1.3994025	-0.2818109	3.9010847
O	0.4567280	-2.0568573	4.2378033
C	2.8199978	-4.0401031	-1.4339070
H	2.2832836	-3.2894689	-0.8320618
H	3.8621103	-3.7883753	-1.6876598
O	2.2933971	-5.0845507	-1.7966182
C	-0.8025500	-4.7477352	-2.1486347
H	-1.4825638	-5.4772793	-1.6805770
H	0.0715673	-5.1763704	-2.6643348
O	-1.0047898	-3.5409317	-2.0990028
C	-4.5175556	-1.6503475	0.4389808
H	-5.5802230	-1.6769191	0.1495621
H	-4.1622942	-2.5154551	1.0213331
O	-3.7804384	-0.7212433	0.1337552
C	-1.5055323	-0.7390753	-3.1891650
H	-2.4967191	-0.3025873	-2.9872778
H	-0.8947411	-0.2055616	-3.9348547
O	-1.1091521	-1.7497964	-2.6225396
C	-1.7579205	-3.1923925	-3.2949476
H	-1.4999194	-3.3447369	-4.3551164
H	-2.6253205	-3.7654558	-2.9302946
O	-1.1229471	-2.4365371	-2.5702199
C	2.2684648	-3.4214904	1.2992660
H	1.9238190	-3.6238320	2.3259151
H	3.1162537	-2.7233590	1.2119596
O	1.7442115	-3.9380878	0.3204788
C	1.9018722	-3.8548021	-2.3037735
H	3.0027746	-3.8700117	-2.2648655
H	1.4639343	-3.7277105	-3.3066762
O	1.2110621	-3.9713824	-1.2993187
C	2.0798186	-4.3629700	0.1565674
H	1.7697734	-4.7370763	1.1453281
H	3.1565901	-4.1600255	0.0419691
O	1.2809172	-4.1846198	-0.7543040
C	2.0413136	-2.3194490	-3.0385883
H	1.7431275	-1.5937102	-3.8119701
H	2.3329934	-1.8865004	-2.0684160
O	2.0480958	-3.5267821	-3.2436239
C	2.9971397	-2.9899326	-2.3162614
H	3.1238330	-2.1098655	-2.9667704
H	2.2586033	-2.8792723	-1.5062773
O	3.6346592	-4.0222597	-2.4824200
C	2.8116608	-3.6294418	-0.1257871
H	1.7702765	-3.9337393	0.0656625
H	3.0397669	-2.5691742	0.0680073
O	3.6590934	-4.4171367	-0.5272018
C	2.8688489	-3.5387519	-2.1159662
H	3.5800141	-4.1045862	-1.4932249
H	2.0857461	-2.9930344	-1.5657857
O	2.9437944	-3.5177785	-3.3381291
C	-1.4387814	1.9319786	-2.6291032
H	-0.5543869	1.2801392	-2.5473543
H	-1.2368890	2.9693296	-2.9403884
O	-2.5706783	1.5302974	-2.3899366
C	3.7021663	-1.8759928	0.0674787
H	3.9639612	-2.8981795	-0.2492687
H	3.4850851	-1.7523581	1.1404866
O	3.6555736	-0.9397077	-0.7205177
C	0.2725927	-0.2482244	-3.2453296
H	0.6968208	-1.1591927	-2.7937783
H	0.9156683	0.2608441	-3.9808967
O	-0.8395164	0.1705589	-2.9494028
