775
Analysis from 50 .xyz files
C	0.0000000	0.0000000	0.0000000
H	-2.0872972	0.0000000	0.0000001
C	-1.1901424	0.6157390	0.0000000
H	0.9390389	0.5417482	0.0412887
H	0.0555975	-1.0841131	-0.0195474
C	-1.4117257	2.0507200	0.0554109
C	-0.5766157	2.9601286	-0.4815218
H	0.3011665	2.6197036	-1.0226180
O	-2.5466080	2.4027904	0.7636166
C	-3.6925595	2.4870458	-0.0838507
H	-4.5365737	2.8220364	0.5262606
H	-3.9446131	1.5071772	-0.5025230
H	-3.5463764	3.2132426	-0.8900704
S	-0.8127564	4.6769995	-0.3574443
C	0.7309681	5.2256708	-1.0592454
C	0.8042942	5.5724249	-2.4118952
C	2.0129139	6.0045548	-2.9619999
H	-0.0774265	5.5097358	-3.0449092
C	3.1508512	6.0962000	-2.1613881
H	2.0649879	6.2729068	-4.0140377
C	1.8737122	5.3271127	-0.2591078
C	3.0816885	5.7592428	-0.8101999
H	4.0908773	6.4352680	-2.5894922
H	3.9667138	5.8363725	-0.1838737
H	1.8297049	5.0722500	0.7972161
C	2.8423511	6.8056098	5.5217231
C	2.1959035	6.1022234	4.5835170
H	3.9172358	6.9421621	5.4720794
H	2.3145828	7.2588830	6.3569881
H	2.7210098	5.6502165	3.7511379
C	0.7307137	5.9156884	4.6509659
O	0.0040443	6.3602336	5.5233433
O	0.3582557	5.1683590	3.5823257
C	-1.0458477	4.8902926	3.4831269
C	-1.3907916	3.6451642	4.2784962
H	-1.2645685	4.7222356	2.4234788
H	-1.6464847	5.7496112	3.8031214
H	-0.7840699	2.7963709	3.9462859
H	-2.4479728	3.3907595	4.1614917
H	-1.1817121	3.7886752	5.3433050
C	-0.8301714	2.7314478	3.4302609
C	0.2821196	2.9491263	4.1432145
H	-1.6442300	2.1409346	3.8365743
H	-0.9520205	3.1364821	2.4288800
H	0.4043278	2.5458293	5.1408710
C	1.3920997	3.7538530	3.5896036
O	1.4039105	4.2711636	2.4855377
O	2.3749074	3.8020854	4.5228671
C	3.5398313	4.5540518	4.1538599
C	4.5147407	3.6718309	3.3967724
H	4.0035226	4.9019038	5.0827976
H	3.2725394	5.4453643	3.5744580
H	4.7726681	2.7875801	3.9888023
H	5.4318300	4.2195655	3.1622990
H	4.0741326	3.3116359	2.4617583
C	-5.9940416	6.2363360	-5.1287283
C	-5.3772243	6.9627195	-4.1881003
H	-6.4211304	6.7102390	-6.0059392
H	-6.0858984	5.1565020	-5.0439657
H	-5.2854239	8.0385804	-4.2717538
C	-4.7951034	6.3170997	-2.9920918
O	-4.8190229	5.1211113	-2.7559760
O	-4.2449807	7.2889700	-2.2226432
C	-3.6232150	6.8384189	-1.0105877
C	-4.6492167	6.7520074	0.1037717
H	-2.8581962	7.5771094	-0.7497837
H	-3.1093168	5.8813827	-1.1574889
H	-5.1521590	7.7151905	0.2388738
H	-4.1745199	6.4662372	1.0466620
H	-5.4256797	6.0177661	-0.1331297
C	-5.9047903	6.9640294	4.6079598
C	-4.5755908	6.8042093	4.6317035
H	-6.3943300	7.6511707	5.2896309
H	-6.5311721	6.4143132	3.9100188
H	-3.9508744	7.3514049	5.3268352
C	-3.9079409	5.8674700	3.7027851
O	-4.4729671	5.1825102	2.8671496
O	-2.5762080	5.9118483	3.9552447
C	-1.7638846	5.0603540	3.1344184
C	-1.6762476	3.6736937	3.7438741
H	-0.7659658	5.5094558	3.0969825
H	-2.1384878	5.0228555	2.1049253
H	-1.2994729	3.7280514	4.7705247
H	-1.0113711	3.0335492	3.1571901
H	-2.6629902	3.2022962	3.7913149
C	-0.1521864	4.4651166	3.2950452
C	-0.1383578	3.1521262	3.5572337
H	-0.7080647	4.8574794	2.4503330
H	0.3892434	5.1745754	3.9156784
H	-0.6773983	2.4446631	2.9393074
C	0.6194435	2.6168828	4.7084842
O	1.2737818	3.2839329	5.4918083
O	0.4544216	1.2708698	4.7238199
C	1.1230055	0.5793546	5.7884653
C	2.5463926	0.2449326	5.3834045
H	0.5651194	-0.3453052	5.9693057
H	1.0964644	1.1581686	6.7189811
H	2.5557365	-0.3339312	4.4540205
H	3.0461504	-0.3341103	6.1650664
H	3.1261087	1.1546627	5.1978038
C	-2.1376894	5.2944587	3.1333359
C	-1.8142093	5.3308916	4.4321472
H	-3.1448519	5.5268955	2.8045730
H	-1.4067758	5.0326644	2.3724859
H	-2.5418635	5.5914815	5.1907736
C	-0.4414586	5.0139025	4.8806995
O	0.4836355	4.7029837	4.1497811
O	-0.4098021	5.1286656	6.2316419
C	0.8593474	4.8590655	6.8442127
C	1.0022602	3.3743080	7.1217270
H	0.8832389	5.4136668	7.7880255
H	1.6865233	5.2335752	6.2301183
H	0.1700736	3.0162648	7.7367032
H	1.9412104	3.1656912	7.6422030
H	0.9824668	2.7971245	6.1918911
C	-1.5420203	11.4247781	-3.0092165
C	-2.2483488	10.7570673	-2.0882713
H	-1.5086588	12.5089199	-3.0058202
H	-0.9836314	10.9056049	-3.7840227
H	-2.8050292	11.2735845	-1.3161192
C	-2.2942362	9.2792309	-2.0927073
O	-1.7235960	8.5597649	-2.8948604
O	-3.0786983	8.8856585	-1.0588126
C	-3.2330215	7.4673348	-0.9064656
C	-4.3811333	6.9701050	-1.7646877
H	-3.4556238	7.2813785	0.1493773
H	-2.3015013	6.9374653	-1.1368959
H	-5.3036322	7.5075753	-1.5216926
H	-4.5450889	5.8998285	-1.6108351
H	-4.1816558	7.1439056	-2.8268221
C	-1.0595185	4.8725556	3.3314504
C	-1.5661907	5.6861208	4.2664759
H	-1.5373901	4.7733081	2.3628034
H	-0.1597967	4.2897872	3.5118535
H	-2.4625956	6.2669383	4.0875594
C	-0.9151811	5.8215101	5.5870751
O	0.0947871	5.2349930	5.9373217
O	-1.6427654	6.7006581	6.3198357
C	-1.1486931	6.9595380	7.6417817
C	-1.6955655	5.9328495	8.6158375
H	-1.4988816	7.9577636	7.9243586
H	-0.0529969	6.9859279	7.6603004
H	-2.7900490	5.9198127	8.5864903
H	-1.3723586	6.1559726	9.6365221
H	-1.3579656	4.9248499	8.3548961
C	-4.1580236	6.2867562	0.1845423
C	-4.8061506	5.7591741	1.2307098
H	-3.1013155	6.0959030	0.0314700
H	-4.6662982	6.9185653	-0.5394314
H	-4.3004445	5.1297374	1.9524940
C	-6.2465475	6.0192829	1.4398180
O	-6.9498929	6.7054815	0.7179123
O	-6.6266167	5.3661415	2.5659494
C	-8.0095297	5.5043998	2.9224656
C	-8.2117266	6.7512274	3.7629896
H	-8.2791822	4.6188221	3.5072523
H	-8.6519322	5.5111230	2.0342857
H	-7.5647948	6.7286650	4.6461065
H	-9.2521719	6.8342724	4.0895184
H	-7.9495281	7.6519956	3.1990784
C	-8.2673929	5.0238998	0.2165225
C	-7.1929636	5.7702973	0.5017767
H	-9.1599895	5.4728734	-0.2055938
H	-8.2794511	3.9521036	0.3975511
H	-7.1802218	6.8381753	0.3218434
C	-5.9761188	5.1586718	1.0773885
O	-5.8384538	3.9752512	1.3367629
O	-5.0636625	6.1449541	1.2614772
C	-3.8068269	5.7275687	1.8135838
C	-3.8766481	5.7212211	3.3291787
H	-3.0557042	6.4524475	1.4829764
H	-3.5040276	4.7494871	1.4221014
H	-4.1786560	6.7045916	3.7042773
H	-2.9060433	5.4614416	3.7610175
H	-4.6211973	5.0021691	3.6851818
C	-4.5003838	6.4582941	0.2354263
C	-4.0613995	6.3373074	-1.0237531
H	-3.8102093	6.4168330	1.0711465
H	-5.5546417	6.6008151	0.4587913
H	-3.0112505	6.1951553	-1.2470949
C	-5.0019326	6.3935615	-2.1632086
O	-6.2082284	6.5467332	-2.0732083
O	-4.2823968	6.2414338	-3.3026574
C	-5.0404937	6.2758440	-4.5203489
C	-5.5650904	4.8909409	-4.8501740
H	-4.3606084	6.6096257	-5.3110966
H	-5.8530572	7.0094368	-4.4640298
H	-4.7420255	4.1708244	-4.9042254
H	-6.0945041	4.8945381	-5.8071233
H	-6.2493719	4.5347718	-4.0736240
C	1.2033418	1.1468481	5.1602122
C	1.1480671	2.2027181	4.3386522
H	1.7893281	0.2714633	4.9017367
H	0.6666783	1.1332112	6.1054477
H	1.6823326	2.2170125	3.3967086
C	0.3492189	3.3960889	4.6905523
O	-0.3052573	3.5291708	5.7106803
O	0.4776155	4.2932459	3.6816708
C	-0.2342278	5.5264348	3.8582834
C	-1.6561351	5.3883607	3.3473448
H	0.2941972	6.2872452	3.2744423
H	-0.2141016	5.8525783	4.9046175
H	-1.6591030	5.0637143	2.3016291
H	-2.1895644	6.3400739	3.4231019
H	-2.2066648	4.6329358	3.9168862
C	-3.1729926	7.6242053	-0.3006913
C	-4.0913188	7.1145249	0.5298389
H	-2.3580889	7.0119484	-0.6715839
H	-3.2143895	8.6601792	-0.6273533
H	-4.0506867	6.0825522	0.8558502
C	-5.2021755	7.9488687	1.0357969
O	-5.3817578	9.1232928	0.7615899
O	-5.9643004	7.1759250	1.8487802
C	-7.1023925	7.8276230	2.4307629
C	-6.7058229	8.5222187	3.7200311
H	-7.8420055	7.0491013	2.6448015
H	-7.5662083	8.5265476	1.7250937
H	-6.2458793	7.8111408	4.4141099
H	-7.5781437	8.9723284	4.2022152
H	-5.9665822	9.3072762	3.5320547
C	-7.7078539	6.2660188	-1.0529727
C	-6.6013851	5.8484810	-0.4250661
H	-8.2519066	5.6051634	-1.7191295
H	-8.0934067	7.2731597	-0.9162980
H	-6.2165602	4.8452947	-0.5608186
C	-5.8593748	6.7491034	0.4829130
O	-6.1655143	7.9019745	0.7356540
O	-4.7939827	6.0638032	0.9671872
C	-3.9561739	6.7892327	1.8785027
C	-2.9071939	7.5745909	1.1137826
H	-3.4664816	6.0497301	2.5205877
H	-4.5476885	7.4410023	2.5318759
H	-2.3245198	6.9098812	0.4675807
H	-2.2265389	8.0842875	1.8015049
H	-3.3725468	8.3227073	0.4642474
C	-4.1903450	6.3765498	-0.6312810
C	-4.0936226	7.3863698	-1.5052295
H	-3.3064606	5.9692901	-0.1523489
H	-5.1506013	5.9357993	-0.3757218
H	-3.1372997	7.8259205	-1.7604619
C	-5.2982397	7.9416473	-2.1584450
O	-6.4397792	7.5539862	-1.9759137
O	-4.8988571	8.9402438	-2.9845906
C	-5.9486036	9.6026935	-3.7042156
C	-6.2464020	8.8631720	-4.9950942
H	-5.5920241	10.6124590	-3.9326023
H	-6.8483793	9.7111800	-3.0875925
H	-5.3389085	8.7644129	-5.5997656
H	-7.0041469	9.3927061	-5.5794401
H	-6.6063559	7.8493950	-4.7930632
C	-0.8824189	0.4405615	5.2387089
C	-1.3141839	1.6992819	5.0901163
H	-1.3835819	-0.2427592	5.9157588
H	-0.0221977	0.0660028	4.6897199
H	-2.1710357	2.0732330	5.6368039
C	-0.6311551	2.6311017	4.1674520
O	0.3432447	2.3595131	3.4866467
O	-1.2792016	3.8210340	4.2250267
C	-0.7499623	4.8533358	3.3806769
C	0.3600486	5.5988350	4.0976496
H	-1.5733777	5.5411276	3.1618948
H	-0.4063503	4.4477925	2.4220032
H	0.0008884	5.9985924	5.0516534
H	0.7302490	6.4258419	3.4852323
H	1.1970874	4.9317607	4.3267897
C	-3.4340837	7.1207567	0.7461559
C	-4.6419072	7.2081910	0.1748458
H	-2.5667706	6.8185748	0.1691443
H	-3.2851762	7.3480576	1.7986884
H	-4.7910980	6.9817707	-0.8736664
C	-5.8244532	7.6198693	0.9611230
O	-5.8170118	7.9046868	2.1466754
O	-6.8964499	7.6162372	0.1304438
C	-8.1425754	7.9995250	0.7295509
C	-8.8170737	6.7922473	1.3536309
H	-8.7727932	8.3998952	-0.0713643
H	-8.0029783	8.8036415	1.4613287
H	-8.9505135	5.9993807	0.6103398
H	-9.7952774	7.0622031	1.7614118
H	-8.2059828	6.3736751	2.1595420
C	-1.8008555	9.9841514	-2.0650842
C	-2.2329165	9.5324954	-0.8809357
H	-1.3780765	10.9784902	-2.1601433
H	-1.8595763	9.3733626	-2.9623871
H	-2.1748846	10.1404505	0.0134495
C	-2.8094802	8.1772027	-0.7510054
O	-2.9425275	7.3785752	-1.6627092
O	-3.1582062	7.9976805	0.5472164
C	-3.7356592	6.7220570	0.8602669
C	-5.2339048	6.7528264	0.6230820
H	-3.5347677	6.5313004	1.9196018
H	-3.2562423	5.9166235	0.2919133
H	-5.6977124	7.5609073	1.1982456
H	-5.6922818	5.8036943	0.9147712
H	-5.4610381	6.9411935	-0.4309842
C	-4.9060397	10.2745149	-2.4984981
C	-4.9745753	9.1268942	-1.8120964
H	-5.1989245	10.3164488	-3.5420248
H	-4.5572268	11.1940427	-2.0353977
H	-5.3218468	8.2103462	-2.2727962
C	-4.5752168	9.0692947	-0.3896615
O	-4.1641853	10.0124596	0.2647116
O	-4.7459713	7.7935574	0.0376034
C	-4.4087423	7.5525486	1.4112333
C	-2.9309353	7.2339317	1.5397371
H	-5.0005371	6.6918051	1.7396165
H	-4.6929906	8.3994374	2.0465064
H	-2.6635061	6.3858129	0.9009090
H	-2.6752479	6.9907016	2.5748732
H	-2.3169443	8.0810474	1.2179650
C	1.4004907	10.2034848	-0.9816466
C	0.3385280	9.5075456	-1.4068304
H	2.3361845	10.1800663	-1.5297495
H	1.3592321	10.8096548	-0.0802480
H	0.3788808	8.9032940	-2.3046908
C	-0.9370632	9.5390525	-0.6598363
O	-1.1371749	10.1686779	0.3649751
O	-1.8215062	8.7476430	-1.3160753
C	-3.1279418	8.6634163	-0.7288790
C	-3.1613805	7.5672660	0.3195864
H	-3.8266284	8.4214227	-1.5364756
H	-3.4406824	9.6274140	-0.3111573
H	-2.8481152	6.6115257	-0.1132540
H	-4.1682676	7.4552027	0.7314892
H	-2.4707474	7.7869860	1.1398768
C	0.0152513	8.4892920	5.9187596
C	-0.3666792	7.8856477	4.7862312
H	-0.0974146	7.9948036	6.8775482
H	0.4471765	9.4868280	5.9136208
H	-0.7972039	6.8919014	4.7905357
C	-0.2134522	8.5594756	3.4790957
O	0.2509666	9.6744510	3.3121939
O	-0.6818518	7.7200341	2.5224569
C	-0.6055156	8.2135103	1.1773466
C	-1.8413538	9.0296289	0.8478050
H	-0.5549210	7.3402918	0.5186618
H	0.3116102	8.7917586	1.0157955
H	-2.7479402	8.4381689	1.0127340
H	-1.8207120	9.3610773	-0.1941929
H	-1.9140504	9.9106180	1.4933285
C	-0.6147765	11.0544474	-3.7485704
C	-0.9808570	10.0654316	-2.9235188
H	-0.0100936	11.8810958	-3.3915001
H	-0.9097075	11.0605743	-4.7948217
H	-0.6875440	10.0586797	-1.8810103
C	-1.8053029	8.9385313	-3.4098425
O	-2.2131004	8.8060296	-4.5512694
O	-2.0199322	8.1007279	-2.3652192
C	-2.8060090	6.9369385	-2.6590644
C	-4.2828864	7.2510873	-2.5104476
H	-2.5192634	6.1663224	-1.9359712
H	-2.5783250	6.5428698	-3.6562903
H	-4.4940303	7.6418948	-1.5096414
H	-4.8883522	6.3552720	-2.6746718
H	-4.5949383	8.0195246	-3.2247691
C	-6.0422558	9.1880204	0.1544266
C	-4.7494975	9.5339358	0.1097495
H	-6.8183246	9.9048545	-0.0912440
H	-6.3530847	8.1852234	0.4362903
H	-4.4390319	10.5328286	-0.1708327
C	-3.6913287	8.5571220	0.4447713
O	-3.8817867	7.3999899	0.7786611
O	-2.4945361	9.1819600	0.3163857
C	-1.3431899	8.3743095	0.6005865
C	-1.0295176	8.4129588	2.0845201
H	-0.5067434	8.7999854	0.0365891
H	-1.4797097	7.3459840	0.2463284
H	-0.8946743	9.4457703	2.4222225
H	-0.1188659	7.8482263	2.3032315
H	-1.8517275	7.9909163	2.6710169
C	-2.2853614	-0.6881144	4.4372410
C	-1.3965151	0.0515218	3.7621348
H	-2.6833297	-1.6035500	4.0128747
H	-2.6340318	-0.3969731	5.4248287
H	-1.0487602	-0.2377885	2.7781288
C	-0.8539629	1.2995654	4.3401920
O	-1.1481149	1.7554953	5.4321232
O	0.0115771	1.8308010	3.4413887
C	0.6430653	3.0552337	3.8422063
C	-0.2285249	4.2402477	3.4707022
H	1.5947012	3.1154584	3.3039701
H	0.8787916	3.0509263	4.9127222
H	-0.4536220	4.2310263	2.3991745
H	0.2703204	5.1813847	3.7186102
H	-1.1871310	4.2034712	3.9978161
C	-2.4299496	9.1301081	-0.9885775
C	-2.1112227	8.2510670	-0.0301530
H	-2.6747388	8.7953455	-1.9908252
H	-2.4533520	10.1994098	-0.7943873
H	-2.0875500	7.1856081	-0.2228675
C	-1.7772745	8.7070335	1.3361190
O	-1.7590719	9.8688756	1.7055817
O	-1.4972018	7.6099086	2.0825067
C	-1.1534542	7.8664348	3.4517033
C	0.3336806	8.1401340	3.5760502
H	-1.4106579	6.9665775	4.0200684
H	-1.7484331	8.6889895	3.8652170
H	0.9135614	7.3095646	3.1603362
H	0.6162511	8.2786577	4.6234321
H	0.6161944	9.0373616	3.0163217
C	-2.2876176	2.8486621	3.6167923
C	-3.2971701	2.4993997	4.4240699
H	-2.4609763	3.0504010	2.5652524
H	-1.2695495	2.9404658	3.9866209
H	-4.3116915	2.4075899	4.0563482
C	-3.0612107	2.2241156	5.8574811
O	-1.9794380	2.2838780	6.4168625
O	-4.2516217	1.8955999	6.4180318
C	-4.2118699	1.5986476	7.8212091
C	-3.8813464	0.1337562	8.0375208
H	-5.2077516	1.8141374	8.2221078
H	-3.5053276	2.2509860	8.3473671
H	-4.5962379	-0.5040449	7.5073651
H	-3.9066400	-0.1164365	9.1018552
H	-2.8881142	-0.1069557	7.6455068
C	-1.4721843	7.1415193	7.9554255
C	-0.6511155	6.3388993	7.2665679
H	-1.4505170	7.1604652	9.0397039
H	-2.1815141	7.7949074	7.4538292
H	0.0557484	5.6875577	7.7655661
C	-0.6805080	6.3126423	5.7885379
O	-1.4181663	6.9839997	5.0872175
O	0.2469751	5.4154959	5.3712590
C	0.3610595	5.2621252	3.9492429
C	-0.6346701	4.2310133	3.4519768
H	1.3801984	4.9175244	3.7454239
H	0.2365962	6.2211378	3.4331100
H	-0.4965550	3.2793611	3.9756254
H	-0.5156480	4.0634798	2.3778213
H	-1.6629780	4.5535612	3.6434790
C	1.3474883	-3.5134582	-2.4243267
C	1.8803313	-4.0283706	-1.3090594
H	1.7571063	-3.7553395	-3.3991059
H	0.4937449	-2.8415023	-2.3888131
H	2.7309778	-4.6977803	-1.3436013
C	1.3223688	-3.6987146	0.0198992
O	0.3715087	-2.9624392	0.2210825
O	2.0570776	-4.3544597	0.9523258
C	1.6493568	-4.1524672	2.3130720
C	2.3170895	-2.9144585	2.8817640
H	1.9690703	-5.0348276	2.8771282
H	0.5580521	-4.0943348	2.3983016
H	3.4057217	-2.9885349	2.7905615
H	2.0591627	-2.7846316	3.9365922
H	2.0119963	-2.0169769	2.3344321
C	-6.8691842	8.2307369	-0.7250451
C	-5.8035906	8.8727216	-0.2298245
H	-7.8721112	8.4847505	-0.3993112
H	-6.7640633	7.4402824	-1.4638245
H	-5.9074845	9.6602415	0.5063278
C	-4.4362856	8.5265972	-0.6734474
O	-4.1584030	7.6659095	-1.4911935
O	-3.5688974	9.3293301	-0.0082590
C	-2.1825156	9.1334206	-0.3216798
C	-1.5977277	8.0387455	0.5510475
H	-1.6713817	10.0797979	-0.1166234
H	-2.0409796	8.9156514	-1.3866370
H	-1.7457407	8.2715704	1.6106748
H	-0.5269987	7.9220571	0.3613978
H	-2.0922814	7.0804387	0.3634520
C	-3.7725472	7.2182187	-0.1749083
C	-2.9872554	7.3196784	0.9048602
H	-3.4959247	7.6930639	-1.1100501
H	-4.7055153	6.6609334	-0.1490771
H	-2.0576870	7.8748222	0.8799639
C	-3.3641036	6.6727106	2.1798284
O	-4.3756985	6.0175307	2.3645611
O	-2.3924862	6.9449040	3.0859678
C	-2.5926198	6.3856064	4.3920307
C	-3.4313279	7.3229936	5.2404511
H	-1.6025185	6.2667759	4.8442635
H	-3.0416578	5.3873036	4.3341849
H	-2.9691581	8.3144157	5.2895080
H	-3.5402433	6.9335348	6.2565727
H	-4.4282937	7.4573797	4.8090270
C	-2.5293081	6.3810156	2.5477614
C	-1.4383445	5.6905816	2.9026936
H	-3.1958300	6.0095991	1.7768616
H	-2.7800485	7.3288265	3.0172797
H	-1.1877825	4.7463013	2.4353016
C	-0.5294278	6.1966598	3.9533510
O	-0.6755878	7.2395816	4.5678933
O	0.4782401	5.3004216	4.0968102
C	1.4611910	5.6306558	5.0884859
C	2.5385668	6.5121512	4.4850206
H	1.9038261	4.6879135	5.4264901
H	1.0013836	6.1024034	5.9646257
H	2.9885873	6.0267635	3.6127789
H	3.3237360	6.7211271	5.2170603
H	2.1205233	7.4630873	4.1399300
C	-5.5918882	9.1354503	-4.4758832
C	-5.6042034	8.4318623	-3.3367212
H	-6.2003428	8.8343626	-5.3218248
H	-4.9762632	10.0242534	-4.5885711
H	-6.2171555	7.5461859	-3.2237215
C	-4.7747654	8.8418579	-2.1834381
O	-4.0349293	9.8107173	-2.1576422
O	-4.9865731	7.9511897	-1.1829054
C	-4.2587232	8.1993477	0.0284244
C	-2.8862107	7.5567810	-0.0441071
H	-4.8330621	7.7490000	0.8446705
H	-4.1882145	9.2728080	0.2389025
H	-2.9737573	6.4855624	-0.2532759
H	-2.3455562	7.6896970	0.8972056
H	-2.2910582	7.9916627	-0.8533035
C	-6.8336187	8.8301868	0.3645880
C	-6.1250738	8.4727355	-0.7138694
H	-7.8740452	9.1231291	0.2741143
H	-6.3921152	8.8382446	1.3579023
H	-6.5641734	8.4645842	-1.7038325
C	-4.7067385	8.0735549	-0.5909639
O	-4.0745782	8.0335733	0.4509026
O	-4.2521296	7.7708698	-1.8323062
C	-2.8811118	7.3536898	-1.9025798
C	-1.9720246	8.5614214	-2.0325341
H	-2.7839507	6.7227165	-2.7921687
H	-2.6069353	6.7365829	-1.0391007
H	-2.2576381	9.1661246	-2.8995314
H	-0.9293867	8.2515428	-2.1462235
H	-2.0503174	9.2085471	-1.1532015
C	-4.6734751	10.8146907	2.3914237
C	-4.6813829	9.4928358	2.1780820
H	-5.2534154	11.2511690	3.1974287
H	-4.0900028	11.4877038	1.7683049
H	-5.2625289	8.8216890	2.7983506
C	-3.8911348	8.8975082	1.0793467
O	-3.1911058	9.5196892	0.2986025
O	-4.0926658	7.5565965	1.1029885
C	-3.3913077	6.8094391	0.0987374
C	-4.2080042	6.7537712	-1.1787018
H	-3.2533208	5.7967232	0.4915506
H	-2.3924160	7.2232369	-0.0817522
H	-5.2013760	6.3372484	-0.9821145
H	-3.7090875	6.1368349	-1.9313740
H	-4.3590270	7.7558316	-1.5924583
C	-2.5136885	7.4019567	4.3448115
C	-3.0817320	7.3577343	3.1330983
H	-3.0898300	7.1824071	5.2371943
H	-1.4647878	7.6574562	4.4720549
H	-4.1266923	7.1034075	3.0055144
C	-2.2967417	7.6571568	1.9164380
O	-1.1156386	7.9593983	1.8975553
O	-3.1247248	7.5378871	0.8489940
C	-2.5238981	7.7906414	-0.4292040
C	-2.5772324	9.2727549	-0.7492637
H	-3.1043965	7.2329059	-1.1714227
H	-1.4973921	7.4083002	-0.4703180
H	-3.6083022	9.6386871	-0.7055139
H	-2.1750769	9.4687018	-1.7472214
H	-2.0022023	9.8529798	-0.0206987
C	8.0789567	8.0130154	-0.9336965
C	8.2181926	6.7625341	-1.3917221
H	8.9132440	8.5334562	-0.4758821
H	7.1324044	8.5426945	-1.0054074
H	9.1608477	6.2341087	-1.3205198
C	7.0811083	6.0526974	-2.0156589
O	5.9616727	6.5120264	-2.1659662
O	7.5109624	4.8183224	-2.3772690
C	6.5298188	3.9840214	-3.0096983
C	5.7306197	3.2298868	-1.9635123
H	7.0733072	3.2729737	-3.6405449
H	5.8768742	4.5662023	-3.6702424
H	6.3963469	2.6528261	-1.3133326
H	5.0197516	2.5466378	-2.4366730
H	5.1762877	3.9200534	-1.3196852
C	-0.7017641	5.6937284	4.4566893
C	-1.2563106	5.8078667	3.2432940
H	0.0976377	4.9833849	4.6379548
H	-1.0325220	6.3046984	5.2927386
H	-0.9274361	5.1994387	2.4098920
C	-2.3461770	6.7759056	2.9958712
O	-2.8236685	7.5264456	3.8297792
O	-2.7080776	6.6688115	1.6932674
C	-3.7610335	7.5473329	1.2711870
C	-5.1124555	6.9115851	1.5384446
H	-3.6346570	7.7041251	0.1949059
H	-3.6779819	8.5293283	1.7511632
H	-5.1800797	5.9331264	1.0516482
H	-5.9206082	7.5476301	1.1664505
H	-5.2635167	6.7454119	2.6097496
C	0.7062243	5.5165653	7.9789238
C	-0.0958058	6.2137558	7.1643375
H	1.0491120	5.9394801	8.9170385
H	1.0369718	4.5119214	7.7280048
H	-0.4256420	7.2147576	7.4135468
C	-0.5632455	5.6376766	5.8853696
O	-0.2782689	4.5283170	5.4672537
O	-1.3492392	6.5607087	5.2775506
C	-1.9000989	6.1654985	4.0130229
C	-0.9260362	6.4848397	2.8944674
H	-2.8222977	6.7388822	3.8726081
H	-2.1775411	5.1050197	4.0124520
H	-0.6601831	7.5469473	2.9076903
H	-1.3604819	6.2417071	1.9207183
H	0.0053478	5.9219374	3.0119067
C	1.1666188	3.3016617	2.7494401
C	2.2721180	2.6339200	3.1028096
H	0.7675636	4.0891644	3.3795850
H	0.6375712	3.0775537	1.8266465
H	2.7996796	2.8565086	4.0220675
C	2.8162672	1.5602324	2.2441930
O	2.3360628	1.1949918	1.1846108
O	3.9252749	1.0672944	2.8494467
C	4.5933516	0.0097811	2.1465906
C	3.9849842	-1.3303451	2.5152289
H	5.6436724	0.0342937	2.4550732
H	4.5724443	0.1751303	1.0631646
H	4.0147078	-1.4809031	3.5993757
H	4.5254109	-2.1481301	2.0302438
H	2.9334144	-1.3802343	2.2154972
C	-2.1861216	11.2438223	2.7481030
C	-2.4696252	9.9378995	2.8321803
H	-2.1256677	11.8580857	3.6400188
H	-2.0088548	11.7266447	1.7904377
H	-2.6464941	9.4561737	3.7858887
C	-2.5523274	9.1002909	1.6165743
O	-2.3804100	9.4960114	0.4761529
O	-2.8534500	7.8359710	2.0039223
C	-2.9690739	6.8766971	0.9432187
C	-4.3809639	6.8774645	0.3877824
H	-2.7435583	5.8953741	1.3734321
H	-2.2285543	7.0606777	0.1562171
H	-5.1079030	6.6911063	1.1851252
H	-4.4955523	6.1084238	-0.3813012
H	-4.6304616	7.8492281	-0.0498863
C	2.5820837	2.0505862	4.9187277
C	1.4387025	1.7205562	4.3050199
H	3.4426587	1.3913396	4.8827748
H	2.6837081	2.9827813	5.4685900
H	1.3366248	0.7919573	3.7571277
C	0.2653333	2.6188506	4.3539859
O	0.2248793	3.6930910	4.9293834
O	-0.7368592	2.0303204	3.6550862
C	-1.9634763	2.7720187	3.5921446
C	-2.8284197	2.4573743	4.7983018
H	-2.4793653	2.4600637	2.6780993
H	-1.7750433	3.8482455	3.5037237
H	-3.0085156	1.3798290	4.8716965
H	-3.7908088	2.9723787	4.7303206
H	-2.3341208	2.7615754	5.7263415
C	-5.1855609	5.7654123	5.5236729
C	-3.9308085	6.1018048	5.1991513
H	-5.7621951	6.3704800	6.2149572
H	-5.6629197	4.8817199	5.1078846
H	-3.4544833	6.9819680	5.6130702
C	-3.1443855	5.2771399	4.2570299
O	-3.5401711	4.2610197	3.7115350
O	-1.9237169	5.8523656	4.1217473
C	-1.0209060	5.1817064	3.2307835
C	-0.2580277	4.1009380	3.9736830
H	-0.3204357	5.9360487	2.8576283
H	-1.5482381	4.7740845	2.3605220
H	0.2638403	4.5239214	4.8383588
H	0.4751658	3.6232015	3.3177570
H	-0.9374810	3.3327595	4.3562694
C	-1.6973978	2.4079743	8.9295342
C	-1.6213564	3.2195688	7.8672679
H	-1.2738423	2.7007043	9.8842058
H	-2.1823695	1.4369563	8.8696167
H	-1.1382362	4.1870566	7.9261233
C	-2.1984200	2.8207910	6.5656920
O	-2.7701526	1.7672268	6.3424532
O	-1.9715189	3.8274235	5.6856779
C	-2.4734319	3.6119450	4.3589074
C	-1.4500979	2.8617441	3.5270846
H	-2.6517647	4.5991628	3.9201200
H	-3.4367217	3.0891170	4.3766046
H	-0.4949202	3.3969837	3.5181725
H	-1.7985555	2.7441375	2.4971381
H	-1.2551007	1.8692412	3.9454644
C	-4.2195967	10.3332229	4.4393230
C	-3.9442073	10.4002717	3.1306814
H	-4.1798717	11.2205101	5.0619235
H	-4.4897207	9.3944187	4.9161284
H	-3.6748771	11.3351709	2.6549435
C	-3.9980469	9.1909462	2.2817062
O	-4.2828560	8.0706833	2.6697861
O	-3.6731439	9.5573761	1.0170382
C	-3.6795754	8.4998898	0.0473222
C	-2.3331120	7.8009617	0.0254409
H	-3.8706576	8.9608160	-0.9273422
H	-4.4956376	7.7922079	0.2339198
H	-1.5295097	8.5203611	-0.1632733
H	-2.3080518	7.0317428	-0.7515521
H	-2.1190657	7.3302263	0.9901791
C	4.0409652	4.3450591	3.2604431
C	4.7508861	5.4292890	3.5970964
H	3.9065409	3.5287610	3.9619239
H	3.5801013	4.2488888	2.2806372
H	5.2104560	5.5257868	4.5729988
C	4.9345220	6.5421307	2.6410696
O	4.4817670	6.5798913	1.5095670
O	5.6898791	7.4904572	3.2487952
C	5.9664901	8.6573345	2.4610444
C	7.2045857	8.4352732	1.6126630
H	6.1427679	9.4810885	3.1605381
H	5.1036487	8.9371419	1.8455753
H	8.0570110	8.1582242	2.2415830
H	7.4582355	9.3397091	1.0525725
H	7.0527960	7.6158533	0.9029884
C	-1.6445329	8.1742713	-1.5753507
C	-1.0403168	9.3293512	-1.8812769
H	-2.6616496	7.9769168	-1.8963071
H	-1.1388697	7.4031127	-0.9997790
H	-1.5434717	10.0981826	-2.4545442
C	0.3460784	9.5988208	-1.4437608
O	1.0399084	8.8354472	-0.7937055
O	0.6895218	10.8323507	-1.8906037
C	2.0179493	11.2610740	-1.5587236
C	2.0292876	11.9220677	-0.1931094
H	2.3197234	11.9867250	-2.3211533
H	2.7297360	10.4288501	-1.6072277
H	1.3149365	12.7512970	-0.1613829
H	3.0257880	12.3052194	0.0440098
H	1.7317010	11.2153144	0.5879600
C	-3.6730481	6.1766284	0.4516510
C	-4.8153972	5.9083175	-0.1932720
H	-3.5636698	5.9493909	1.5065859
H	-2.8250345	6.6274701	-0.0575428
H	-5.6607440	5.4592947	0.3133531
C	-4.9649438	6.2181282	-1.6312494
O	-4.1072205	6.7235207	-2.3352382
O	-6.2129278	5.8444995	-2.0082847
C	-6.5337654	6.0693947	-3.3885575
C	-7.0649573	7.4776012	-3.5802156
H	-7.3081358	5.3441244	-3.6592404
H	-5.6706830	5.8749345	-4.0357544
H	-7.9267466	7.6554552	-2.9285928
H	-7.3679080	7.6398365	-4.6184566
H	-6.3074278	8.2225099	-3.3168003
C	-2.9064946	9.7487141	-2.0272155
C	-3.5293414	8.9631582	-1.1396112
H	-3.3350194	9.9286464	-3.0072558
H	-1.9584863	10.2276633	-1.7958031
H	-4.4737682	8.4855285	-1.3694581
C	-2.9454040	8.7174791	0.1963472
O	-1.8926414	9.1812946	0.6004231
O	-3.7844880	7.8922234	0.8702233
C	-3.3741615	7.5479719	2.2013096
C	-2.4583396	6.3387192	2.1709528
H	-4.2822787	7.3076258	2.7638866
H	-2.8993390	8.3979388	2.7049854
H	-2.9471533	5.4987840	1.6664775
H	-2.1871580	6.0320796	3.1850911
H	-1.5410162	6.5544751	1.6140916
C	-1.0790256	4.0660628	3.0954189
C	-1.9424544	3.3426983	3.8193748
H	-1.4322049	4.8075957	2.3869831
H	-0.0044860	3.9342718	3.1937025
H	-3.0131299	3.4733121	3.7219298
C	-1.4614003	2.3316397	4.7850214
O	-0.2911388	2.0695500	5.0052668
O	-2.5472741	1.7610591	5.3634106
C	-2.2655355	0.7497866	6.3414796
C	-2.1071221	-0.6005794	5.6681594
H	-3.1188968	0.7211842	7.0269666
H	-1.3823814	1.0064257	6.9379399
H	-2.9971364	-0.8427722	5.0781234
H	-1.9506528	-1.3881559	6.4106447
H	-1.2580675	-0.5979609	4.9773434
C	-1.6967555	4.5372566	6.8702711
C	-1.7177462	3.3162001	6.3212191
H	-1.2500760	4.7008411	7.8450559
H	-2.1235650	5.3972847	6.3605171
H	-1.2928622	2.4588546	6.8285003
C	-2.3267357	3.0927820	4.9925574
O	-2.8442647	3.9539714	4.3017406
O	-2.2058445	1.7746462	4.6973940
C	-2.7436462	1.3745720	3.4287815
C	-4.2195991	1.0502914	3.5642372
H	-2.1970738	0.4781281	3.1180035
H	-2.5697972	2.1389895	2.6626014
H	-4.3762703	0.2849899	4.3315004
H	-4.6256091	0.6876338	2.6157230
H	-4.7889319	1.9325310	3.8734957
