374
Analysis from 50 .xyz files
C	0.0000000	0.0000000	0.0000000
O	-1.2300777	0.0000000	0.0000000
O	0.6890805	1.1843729	0.0000000
H	1.6729117	1.0834172	-0.0443419
N	2.0208683	-1.2115960	0.8655640
C	3.4101448	-0.0122147	-0.7252616
H	2.6951385	-0.0466875	-1.5392439
H	4.3643043	0.4456256	-0.9488318
C	3.2134445	-0.6098313	0.4849777
C	4.3082871	-0.6053136	1.5299268
H	4.5964709	-1.6260515	1.8091729
H	5.1946151	-0.0981634	1.1449984
H	3.9912246	-0.0923000	2.4456851
C	0.3623010	-2.4334482	2.0592729
C	1.8408279	-2.0012734	2.1084649
C	0.8404010	-1.2994529	-0.0173620
C	0.0430597	-2.4876355	0.5505532
H	0.1976361	-3.3896641	2.5634215
H	-0.2713932	-1.6828688	2.5452288
H	2.5077632	-2.8758346	2.1117493
H	2.0653658	-1.4032347	2.9978399
H	1.1540533	-1.4853985	-1.0544887
H	-1.0212911	-2.3870176	0.3339837
H	0.4109630	-3.4209046	0.1098810
C	-2.5721198	0.6886175	3.1493424
H	-2.9387518	-0.3552551	3.1271210
O	-1.5888724	0.9856048	3.8371180
C	-3.3451046	1.6630059	2.3054587
H	-4.3964730	1.6854689	2.6219501
H	-2.9157740	2.6638153	2.3868995
H	-3.3371065	1.3422547	1.2552835
C	-0.7947356	4.1196961	-0.0705242
H	-1.2040304	3.5899006	-0.9516470
O	0.0844212	4.9764406	-0.2157293
C	-1.3804119	3.7184202	1.2542545
H	-1.2263897	2.6446373	1.4254691
H	-0.9206582	4.2889137	2.0640325
H	-2.4655220	3.8867929	1.2539131
C	-4.4584356	1.5109983	1.0496060
H	-4.5414016	1.1206318	0.0174657
O	-5.1420595	1.0197552	1.9547859
C	-3.4836626	2.6395960	1.2371236
H	-3.7588755	3.4868420	0.5948784
H	-3.4665389	2.9605090	2.2808181
H	-2.4772961	2.3240311	0.9314133
C	-2.6859523	2.4227158	2.9004154
H	-1.6296106	2.2447111	3.1779753
O	-3.5919812	2.1249090	3.6868217
C	-2.9037218	3.0309783	1.5433335
H	-2.4723584	2.3854720	0.7666135
H	-3.9700489	3.1709765	1.3537979
H	-2.3867282	3.9973673	1.4753389
C	-1.2409179	4.3691410	-1.8801331
H	-0.8204463	4.9087846	-1.0103220
O	-0.8482041	4.6330273	-3.0221279
C	-2.2834697	3.3358032	-1.5570591
H	-3.1268906	3.8021645	-1.0305661
H	-2.6411930	2.8552071	-2.4700970
H	-1.8670904	2.5782193	-0.8799268
C	-4.1347078	1.1632102	-0.1887340
H	-3.5578960	1.5215054	0.6850483
O	-5.0056670	0.2980733	-0.0438882
C	-3.7762551	1.7971130	-1.5035560
H	-2.7148532	1.6265704	-1.7280293
H	-4.3918974	1.3862149	-2.3065032
H	-3.9179207	2.8846872	-1.4494584
C	-0.9671526	2.8369671	-2.6170301
H	-0.4872770	3.8288819	-2.5150148
O	-0.5290660	2.0174866	-3.4322258
C	-2.1441665	2.5927836	-1.7147604
H	-2.9223675	3.3459020	-1.8971414
H	-2.5533547	1.5941945	-1.8819771
H	-1.8424864	2.6968969	-0.6640641
C	-1.3399568	-1.1333423	-4.0215323
H	-1.2595598	-0.0481001	-4.2224522
O	-0.5100225	-1.6923882	-3.2957991
C	-2.4970461	-1.8287775	-4.6822834
H	-2.4377872	-1.7078513	-5.7721973
H	-2.4988097	-2.8913830	-4.4304042
H	-3.4436681	-1.3723671	-4.3638348
C	-0.3965643	3.6951879	2.4364727
H	-0.3705207	3.0124190	3.3069503
O	0.5173501	4.5084111	2.2591580
C	-1.5898638	3.5471578	1.5346959
H	-2.5150228	3.7152592	2.1020314
H	-1.5332897	4.2564062	0.7062377
H	-1.6410681	2.5232636	1.1412085
C	-0.6248246	3.2725779	-2.6423856
H	0.1965280	2.5817469	-2.3727278
O	-0.3682507	4.3891379	-3.1065794
C	-2.0135402	2.7501043	-2.4024523
H	-2.1433257	2.4958854	-1.3419923
H	-2.7576858	3.4937478	-2.6953999
H	-2.1724255	1.8247276	-2.9718792
C	-5.0300051	1.2463126	-0.4069928
H	-4.8550844	0.2740587	-0.9056993
O	-5.9558160	1.3697730	0.4027256
C	-4.0817549	2.3481696	-0.7888443
H	-4.1296930	2.5294670	-1.8709164
H	-4.3268319	3.2667586	-0.2515285
H	-3.0486852	2.0525884	-0.5625435
C	0.3697393	0.2289909	-4.3118060
H	-0.5846724	-0.1331231	-3.8845417
O	1.4316861	-0.3328334	-4.0208860
C	0.2577395	1.4105719	-5.2339777
H	-0.2001356	2.2585112	-4.7072935
H	1.2426795	1.6988733	-5.6072768
H	-0.4010201	1.1691512	-6.0787056
C	-2.8685610	4.2837789	-1.3636057
H	-3.6186116	3.6651145	-1.8920574
O	-2.5602360	5.3961758	-1.8057834
C	-2.2888808	3.6731654	-0.1185354
H	-1.8050502	2.7165943	-0.3571284
H	-1.5614699	4.3491895	0.3358230
H	-3.0882216	3.4530560	0.6014780
C	0.6997579	2.1897316	2.9059297
H	1.6946563	2.4136922	2.4762766
O	0.3020800	1.0211921	2.9721095
C	-0.0834826	3.3824875	3.3781009
H	-0.2431356	4.0824215	2.5470472
H	-1.0474382	3.0700535	3.7852266
H	0.4827773	3.9261631	4.1459420
C	-0.9756119	4.6512733	0.6296454
H	-0.0351501	4.5194125	0.0615546
O	-1.3466862	5.7832295	0.9597835
C	-1.7221339	3.3857190	0.9461188
H	-1.0860103	2.7084593	1.5315357
H	-2.6330575	3.6089314	1.5055571
H	-1.9788072	2.8567761	0.0186753
C	-2.3020469	0.9721331	3.5311091
H	-2.5396732	1.4918813	2.5834918
O	-1.1332272	0.6686645	3.7952672
C	-3.4774697	0.6843966	4.4225501
H	-4.2111382	0.0634380	3.8913365
H	-3.1522464	0.1724540	5.3306919
H	-3.9874758	1.6197683	4.6886079
C	-3.5338026	0.4215760	2.6353226
H	-3.1661519	1.4605590	2.7349719
O	-2.7927850	-0.5275081	2.9148660
C	-4.9499024	0.2809045	2.1516379
H	-5.0619786	0.7565546	1.1681529
H	-5.2276755	-0.7730271	2.0834692
H	-5.6354844	0.7998983	2.8345992
C	-3.7937171	-0.1401454	-2.8557370
H	-4.6915875	-0.4036868	-2.2650107
O	-3.2832425	-0.9735731	-3.6125899
C	-3.2791869	1.2584441	-2.6600738
H	-3.0282624	1.4241273	-1.6038386
H	-2.3958717	1.4308466	-3.2786272
H	-4.0588376	1.9872147	-2.9186306
C	-1.4363270	-3.3100863	-3.1071774
H	-1.5445864	-2.4315067	-3.7712260
O	-0.3464959	-3.5568626	-2.5786119
C	-2.6789793	-4.1342287	-2.9182784
H	-3.0358805	-4.5068805	-3.8877107
H	-2.4815792	-4.9762201	-2.2514496
H	-3.4836297	-3.5140385	-2.5014870
C	-2.8546960	4.3352722	1.2949218
H	-2.2363739	5.2205938	1.0531238
O	-3.7290019	4.4090879	2.1656414
C	-2.5457282	3.0956357	0.5031401
H	-1.4971595	2.8046782	0.6511075
H	-3.2004185	2.2756529	0.8057712
H	-2.6717372	3.2918115	-0.5699163
C	0.9336839	2.5874473	3.0839396
H	-0.1271401	2.7127254	3.3729738
O	1.3466339	1.4859178	2.7043121
C	1.7828803	3.8229131	3.1914937
H	1.7737725	4.1986819	4.2233666
H	2.8097642	3.6085872	2.8879306
H	1.3702051	4.6208845	2.5600237
C	3.0307662	3.7607194	1.0756323
H	2.0801866	3.9326274	0.5357907
O	3.2361622	2.6804619	1.6403167
C	4.0006001	4.9088428	1.0579447
H	3.5374895	5.8011305	1.4999835
H	4.9063050	4.6527700	1.6117515
H	4.2613583	5.1669233	0.0229505
C	3.8253414	0.1233518	6.3121522
H	3.2201141	0.6316090	7.0867213
O	3.3724143	-0.0276470	5.1719467
C	5.1834319	-0.3429658	6.7562425
H	5.0861236	-1.0422878	7.5973885
H	5.7084951	-0.8306988	5.9322268
H	5.7750605	0.5081906	7.1186260
C	-0.6190918	1.7100075	-2.8788866
H	-0.5135509	0.6156437	-2.7531410
O	0.3574979	2.3931574	-3.2068971
C	-1.9948090	2.2597853	-2.6254610
H	-2.3136487	2.0222889	-1.6017503
H	-2.0070266	3.3418896	-2.7720139
H	-2.7204618	1.7875909	-3.3009415
C	-0.9355296	-0.7555294	-3.9050713
H	-0.0617069	-0.3605687	-4.4573600
O	-0.7851344	-1.6494853	-3.0646929
C	-2.2574450	-0.1325212	-4.2564670
H	-2.4661432	-0.2677718	-5.3261394
H	-3.0599425	-0.5802028	-3.6664197
H	-2.2250415	0.9498786	-4.0743292
C	1.6346459	-6.5122901	3.3894010
H	0.5834890	-6.6415002	3.0685323
O	2.2243680	-5.4489927	3.1666030
C	2.2470400	-7.6941631	4.0874180
H	2.2173386	-8.5759389	3.4334790
H	3.2805164	-7.4794536	4.3674240
H	1.6660773	-7.9454135	4.9847300
C	8.2666303	0.8321107	-0.9885980
H	8.5894235	1.1261088	-2.0054325
O	7.0905193	0.9892692	-0.6420776
C	9.3410637	0.2521600	-0.1120546
H	10.1608340	0.9730807	0.0075143
H	8.9356673	-0.0085688	0.8678694
H	9.7712514	-0.6415602	-0.5832404
C	5.4264212	-4.1885185	4.4452446
H	6.3394352	-3.5810213	4.5933508
O	4.3924054	-3.6600575	4.0215084
C	5.5565657	-5.6453873	4.7911838
H	5.8502010	-5.7588595	5.8433004
H	4.6127717	-6.1658605	4.6152942
H	6.3504375	-6.1069774	4.1890912
C	-3.8219632	3.2384852	-2.6293739
H	-3.5494604	2.8131962	-3.6139827
O	-4.9231754	3.7770241	-2.4702527
C	-2.7774633	3.1056928	-1.5567770
H	-1.8475778	3.5974034	-1.8723405
H	-3.1293112	3.5502328	-0.6234153
H	-2.5364046	2.0468975	-1.3935086
C	-5.3489991	2.6762787	0.4962296
H	-5.3989138	3.0592876	-0.5407832
O	-6.3672837	2.6490274	1.1964910
C	-3.9923780	2.2150921	0.9500623
H	-3.2696701	3.0387592	0.8771742
H	-4.0358488	1.8549543	1.9801050
H	-3.6269485	1.4139167	0.2940192
C	-3.7354687	-3.5934985	2.1196391
H	-4.0534039	-3.2798430	3.1321214
O	-2.6006921	-4.0495657	1.9399256
C	-4.7637389	-3.4208275	1.0370851
H	-5.0646172	-2.3669910	0.9667456
H	-4.3666212	-3.7541333	0.0759496
H	-5.6686093	-3.9930977	1.2810727
C	4.0340520	-3.3002633	5.4707717
H	3.3687043	-4.1524413	5.2347891
O	4.0695266	-2.3162631	4.7234449
C	4.8502866	-3.4457022	6.7244409
H	5.4846930	-4.3398308	6.6603346
H	5.4744900	-2.5630173	6.8787598
H	4.1901634	-3.5869818	7.5905186
C	1.6528882	4.2021638	2.7381890
H	1.1875345	4.9411652	2.0585524
O	2.8502720	4.2968092	3.0302957
C	0.7360010	3.1254948	3.2472860
H	0.3097816	2.5633918	2.4056067
H	1.2763038	2.4440075	3.9077591
H	-0.1077565	3.5731162	3.7890622
C	7.9572896	1.9311826	-0.8441072
H	8.1928985	1.8992633	-1.9248721
O	7.2889632	1.0280803	-0.3285899
C	8.5002830	3.1183693	-0.0992421
H	8.1156196	4.0482496	-0.5390189
H	8.2213493	3.0682350	0.9553949
H	9.5940164	3.1534175	-0.1905229
C	1.3183468	-6.9264065	3.5114508
H	1.8333232	-7.3019029	4.4160970
O	1.5434790	-5.7827395	3.0999251
C	0.3660951	-7.8914487	2.8626149
H	-0.4142684	-8.1889553	3.5757556
H	-0.0946735	-7.4398060	1.9815428
H	0.8966321	-8.8081472	2.5727740
C	0.3202127	-4.8221393	-3.0912526
H	-0.6273320	-4.2611217	-2.9817029
O	1.2151709	-4.6977011	-2.2477023
C	0.4112040	-5.7062100	-4.3033655
H	0.2844141	-5.1093114	-5.2164280
H	1.3749244	-6.2191015	-4.3309717
H	-0.4003961	-6.4458126	-4.2930484
C	-3.1964245	2.8177435	-0.1821710
H	-4.0417887	2.1196060	-0.0320162
O	-2.9556728	3.2662594	-1.3086186
C	-2.4076325	3.1523353	1.0527109
H	-1.9928937	2.2368734	1.4953936
H	-1.5971915	3.8439098	0.8129469
H	-3.0640608	3.6012376	1.8099440
C	0.2708876	-6.4626110	-1.8661874
H	-0.7177072	-6.0313838	-2.1137888
O	1.0289351	-5.8696739	-1.0904288
C	0.5887281	-7.7731175	-2.5299857
H	0.5515708	-7.6620755	-3.6219270
H	1.5786645	-8.1233661	-2.2301047
H	-0.1655887	-8.5248108	-2.2620737
C	2.6199161	-0.2468072	6.4298423
H	3.3869328	0.4564435	6.0534027
O	2.3321016	-1.2569462	5.7780799
C	1.9922505	0.1245719	7.7440689
H	1.5143005	1.1104614	7.6690179
H	1.2508104	-0.6213964	8.0379643
H	2.7635135	0.2046965	8.5215950
C	4.3685885	-5.7592770	0.0847150
H	5.2579538	-5.3796494	-0.4533328
O	3.8052726	-5.0517458	0.9273816
C	3.9321257	-7.1483991	-0.2880021
H	4.7466020	-7.8619556	-0.1049381
H	3.0518949	-7.4402052	0.2887298
H	3.7032909	-7.1971700	-1.3608810
C	2.5378841	-2.5608746	6.5203814
H	1.9240978	-3.4375530	6.2388068
O	2.8467700	-1.7209844	5.6676293
C	2.9404711	-2.4917529	7.9668335
H	3.5141445	-3.3867829	8.2422730
H	3.5406965	-1.5989229	8.1543458
H	2.0482736	-2.4778567	8.6068365
C	0.7747046	-1.5588432	6.5020440
H	0.2221226	-2.4677972	6.1970213
O	1.3673034	-0.8805237	5.6554501
C	0.7380902	-1.2429417	7.9710381
H	1.1540644	-2.0798817	8.5477040
H	1.3062619	-0.3342602	8.1809326
H	-0.3004176	-1.1140631	8.3037622
C	0.7018626	-4.6041403	-3.1098431
H	0.2528321	-5.3527618	-2.4297548
O	1.4770724	-3.7497509	-2.6659054
C	0.2994941	-4.7191622	-4.5534316
H	-0.7905838	-4.6272654	-4.6500343
H	0.7873847	-3.9447829	-5.1491463
H	0.5697438	-5.7096394	-4.9429611
C	4.8408067	3.2638594	0.6980737
H	4.3183965	3.9404091	-0.0047428
O	5.7512646	2.5324270	0.2929995
C	4.3618193	3.3161625	2.1217708
H	3.2935334	3.0662190	2.1701483
H	4.9301612	2.6199595	2.7421462
H	4.4672262	4.3346728	2.5184313
C	0.8852367	-4.8430373	-2.9310664
H	1.6507739	-5.3506789	-2.3139475
O	0.6532164	-3.6402725	-2.7651285
C	0.1886942	-5.7120186	-3.9404118
H	-0.3099940	-6.5507024	-3.4364609
H	-0.5464328	-5.1316865	-4.5019987
H	0.9211557	-6.1484348	-4.6324049
C	-4.3786961	-0.5410216	-3.6772757
H	-3.9320505	0.3540317	-4.1505304
O	-5.0271438	-1.3435813	-4.3580294
C	-4.1340945	-0.6812935	-2.2009384
H	-4.5287662	0.1940577	-1.6679829
H	-4.6082987	-1.5879779	-1.8193228
H	-3.0553634	-0.7156966	-1.9985308
C	5.5900293	-3.0681545	-1.1515345
H	6.1851872	-2.4485356	-1.8489888
O	5.9841606	-3.2508690	0.0057416
C	4.3195747	-3.6383784	-1.7171033
H	4.5430112	-4.2642334	-2.5914194
H	3.7986969	-4.2328953	-0.9635698
H	3.6648043	-2.8288070	-2.0659342
C	-3.4102546	-3.7472992	-1.7118960
H	-3.0459623	-3.3471332	-2.6771635
O	-2.6241698	-4.2985020	-0.9332701
C	-4.8791942	-3.5659191	-1.4503696
H	-5.4663019	-4.0517805	-2.2411225
H	-5.1497668	-3.9881234	-0.4802609
H	-5.1379510	-2.4990018	-1.4737276
C	2.8582271	-3.4502099	-2.3056101
H	3.6707724	-2.8035894	-2.6880168
O	2.8804553	-3.8463637	-1.1348923
C	1.7782569	-3.7845717	-3.2960365
H	2.2100700	-4.2938462	-4.1679447
H	1.0215350	-4.4231716	-2.8354510
H	1.3082781	-2.8641839	-3.6672771
C	4.0128978	3.1585058	4.8224636
H	4.1975282	4.1937820	4.4779383
O	4.0000813	2.2277115	4.0091557
C	3.7901604	2.9994282	6.3003541
H	2.9293027	3.6020374	6.6194671
H	3.6168062	1.9505504	6.5501150
H	4.6610993	3.3720479	6.8557221
