374
Analysis from 50 .xyz files
C	0.0000000	0.0000000	0.0000000
O	-1.2246176	0.0000000	0.0000000
O	0.6880762	1.2055009	0.0000000
H	1.6588234	1.0929109	0.0556959
N	0.3557573	-2.3606869	0.7054631
C	1.0256144	-1.3435923	2.7969774
H	1.3523278	-0.4154189	2.3448072
H	1.1198625	-1.4103683	3.8727545
C	0.4813051	-2.3674015	2.0966202
C	-0.0225587	-3.6124335	2.7916955
H	0.4581833	-4.5189036	2.4030246
H	0.1810252	-3.5524168	3.8626135
H	-1.1053150	-3.7340963	2.6625533
C	-0.3899073	-2.7806136	-1.5085809
C	-0.3284291	-3.3966425	-0.0969954
C	0.8713143	-1.2662777	-0.0994439
C	0.8241946	-1.8286876	-1.5478212
H	-0.3527358	-3.5393664	-2.2955386
H	-1.3136518	-2.2058690	-1.6225138
H	0.2409663	-4.3382122	-0.0959864
H	-1.3297986	-3.6077338	0.2923063
H	1.9010301	-1.0274887	0.2077073
H	0.7291886	-1.0444347	-2.3046917
H	1.7499876	-2.3818725	-1.7438062
C	3.7286861	1.8194172	3.0996919
H	4.2208561	1.3066476	3.9478776
O	3.6702391	1.2709071	1.9934675
C	3.1657803	3.1791141	3.4053708
H	3.9615745	3.8451408	3.7647688
H	2.7009768	3.6092789	2.5157120
H	2.4238103	3.1080363	4.2117465
C	5.0944859	0.7847302	-1.6664087
H	4.7523844	0.3175792	-2.6094460
O	4.3435226	0.8220317	-0.6852487
C	6.4901330	1.3420995	-1.6906329
H	6.5788654	2.1039249	-2.4766325
H	6.7431783	1.7814011	-0.7233900
H	7.2092092	0.5490927	-1.9353430
C	-4.1721352	-1.5377670	-0.2339110
H	-4.0458415	-0.6897455	-0.9335481
O	-3.8659183	-2.6824692	-0.5859058
C	-4.7241524	-1.1830538	1.1183219
H	-5.7076203	-0.7061776	1.0114261
H	-4.8148407	-2.0759789	1.7404450
H	-4.0701600	-0.4530400	1.6134855
C	3.6488805	3.1096872	-1.3663235
H	2.8698339	3.5024236	-0.6855685
O	4.1040376	1.9729427	-1.1970418
C	4.0797916	4.0436376	-2.4622843
H	4.4698080	4.9758730	-2.0323176
H	4.8472598	3.5763983	-3.0829747
H	3.2180135	4.3181197	-3.0850293
C	4.0061682	2.3967723	-2.2738825
H	4.9153648	2.7166215	-1.7301539
O	3.5006061	1.2931488	-2.0405707
C	3.4707566	3.3830367	-3.2737300
H	4.2349430	3.6064714	-4.0301314
H	2.5771210	2.9868973	-3.7606241
H	3.2301878	4.3320348	-2.7763948
C	4.0805255	2.3632428	1.7753275
H	3.5103486	2.9487414	1.0292226
O	4.0486240	1.1277994	1.7493651
C	4.8590406	3.1729050	2.7740464
H	4.1833148	3.8337586	3.3332548
H	5.3886713	2.5170290	3.4682328
H	5.5788273	3.8205786	2.2561281
C	4.6450758	-2.6204762	1.6603524
H	4.4134713	-3.7013919	1.7109832
O	4.4909488	-2.0026261	0.6008627
C	5.1404362	-2.0052565	2.9391020
H	6.0545211	-2.5138620	3.2734913
H	5.3428911	-0.9414274	2.7981892
H	4.3953402	-2.1369671	3.7349020
C	-1.9237495	0.3415295	3.4871179
H	-1.7798344	-0.4310727	2.7080433
O	-1.9306684	0.0234008	4.6815879
C	-2.1012673	1.7452416	2.9800108
H	-2.9708752	1.7980072	2.3113966
H	-2.2360865	2.4384494	3.8129956
H	-1.2271464	2.0459549	2.3873074
C	-2.0979089	3.5954913	0.9395325
H	-1.5202882	2.8968221	0.3048683
O	-2.0646467	4.8102478	0.7130981
C	-2.8877857	2.9585679	2.0483613
H	-2.2186680	2.3981803	2.7149150
H	-3.4242445	3.7182573	2.6207778
H	-3.6025526	2.2345759	1.6351337
C	5.3429696	-1.3459372	-0.2901643
H	5.4713522	-2.2039523	0.3967932
O	4.3789121	-1.3096793	-1.0630101
C	6.3999994	-0.2813169	-0.1987877
H	7.3887965	-0.7123018	-0.4051353
H	6.1948094	0.5230225	-0.9083735
H	6.4383425	0.1262171	0.8201623
C	-2.6850750	2.3955394	-3.1965480
H	-1.9710384	3.0329957	-2.6412246
O	-2.5907562	2.2833275	-4.4239537
C	-3.7290152	1.7127891	-2.3580262
H	-4.3221887	2.4587362	-1.8123571
H	-4.3872181	1.1076032	-2.9849997
H	-3.2495368	1.0754354	-1.6032453
C	2.1262840	2.5593851	-3.0593826
H	2.0116777	2.9287130	-2.0225387
O	2.7274603	1.5015562	-3.2775503
C	1.5118638	3.4235090	-4.1246786
H	1.9489528	4.4304729	-4.0926803
H	1.6718864	2.9850817	-5.1119734
H	0.4352323	3.5394668	-3.9423827
C	4.6250068	-2.0754662	0.3636950
H	4.5077896	-3.0958611	0.7755655
O	4.3673763	-1.8534832	-0.8247334
C	5.1036288	-1.0363060	1.3384488
H	6.0773652	-1.3283675	1.7538816
H	5.1901364	-0.0639853	0.8488719
H	4.4073366	-0.9629932	2.1843896
C	-2.1156728	4.1465586	1.8838195
H	-1.3643965	4.7542894	1.3445329
O	-2.2267945	4.2444920	3.1110413
C	-2.9471383	3.2356350	1.0247727
H	-2.2997491	2.5357588	0.4796969
H	-3.6584751	2.6770193	1.6367575
H	-3.4891732	3.8198296	0.2693071
C	4.4023118	0.3532759	-3.0483480
H	4.9272225	1.0260600	-2.3437820
O	3.5061880	-0.3940967	-2.6404160
C	4.8598757	0.4306782	-4.4779362
H	5.9301024	0.1937415	-4.5451863
H	4.2904651	-0.2634193	-5.0996893
H	4.7371823	1.4532696	-4.8588124
C	-3.5842204	-1.1555400	-4.2023630
H	-4.0992613	-1.1271407	-5.1813979
O	-2.4415717	-1.6192045	-4.1164501
C	-4.3673500	-0.6040086	-3.0440886
H	-5.3089122	-1.1570809	-2.9273900
H	-3.7854016	-0.6713799	-2.1224738
H	-4.6366164	0.4433232	-3.2348896
C	-3.4083307	3.5895197	2.0058243
H	-3.7656136	3.8231651	0.9848730
O	-3.6407470	4.3684118	2.9371255
C	-2.6509565	2.2988250	2.1457158
H	-1.7692753	2.3055481	1.4910099
H	-2.3380751	2.1494864	3.1812736
H	-3.2778319	1.4564580	1.8243773
C	-4.9275831	1.9404552	1.5463477
H	-5.5626071	1.2097711	1.0102243
O	-5.0802745	2.1215412	2.7595687
C	-3.9118683	2.6565090	0.7009671
H	-4.4126118	3.2012866	-0.1105255
H	-3.3323953	3.3545891	1.3088091
H	-3.2369007	1.9317193	0.2267182
C	-3.1447606	2.0867074	3.2405032
H	-2.9903861	2.7560755	2.3729217
O	-3.5487252	2.5470371	4.3142449
C	-2.8320217	0.6361970	3.0011454
H	-1.7849676	0.5220197	2.6901982
H	-3.0120162	0.0519419	3.9060348
H	-3.4502719	0.2469303	2.1813580
C	-2.5370465	4.7219058	-0.8324782
H	-2.4077211	5.2720148	0.1189617
O	-3.1804553	5.2282486	-1.7585743
C	-1.8880933	3.3673787	-0.8889953
H	-2.2841368	2.7253690	-0.0908600
H	-2.0655956	2.8986241	-1.8592215
H	-0.8076750	3.4587905	-0.7153472
C	3.9963251	-4.7632032	0.4889027
H	4.9088883	-4.1765931	0.7073059
O	3.1563326	-4.3290921	-0.3073211
C	3.8808727	-6.0733203	1.2164617
H	3.9024636	-5.9057731	2.3015923
H	2.9546856	-6.5826765	0.9420342
H	4.7395897	-6.7147443	0.9777282
C	4.5623154	1.8574314	1.5503676
H	3.5316362	2.0116676	1.9225158
O	4.7543743	1.5387730	0.3715621
C	5.6527576	2.0620919	2.5643341
H	5.5124658	1.3790485	3.4127542
H	6.6320100	1.8900681	2.1126159
H	5.6064791	3.0823020	2.9678723
C	2.0981042	4.9593494	0.4492297
H	1.9448119	5.1447930	1.5293663
O	3.2431070	4.8944065	-0.0120331
C	0.8437388	4.8017184	-0.3636649
H	0.2224908	5.7032467	-0.2779641
H	1.0881027	4.6226884	-1.4128605
H	0.2452605	3.9664882	0.0236690
C	2.0310566	1.3620939	-4.8915001
H	2.7217675	2.2242442	-4.8267071
O	2.2342061	0.3525148	-4.2077659
C	0.8792366	1.5270707	-5.8429052
H	1.2523593	1.7161972	-6.8583152
H	0.2522528	0.6329410	-5.8428238
H	0.2769848	2.4002433	-5.5588706
C	-2.9839538	2.3863392	-3.6164278
H	-3.1080765	3.3050236	-4.2207418
O	-2.8895187	1.2865797	-4.1728657
C	-2.9431181	2.5925620	-2.1281796
H	-3.8681976	3.0773240	-1.7886497
H	-2.8187295	1.6376329	-1.6131895
H	-2.1169275	3.2654490	-1.8627640
C	2.0237344	-4.2492354	-4.8156874
H	1.9513794	-3.2151269	-5.2029434
O	2.0477673	-4.4543198	-3.5969279
C	2.0869096	-5.3275895	-5.8607900
H	2.9543433	-5.1687189	-6.5152866
H	2.1564309	-6.3111974	-5.3914723
H	1.1954090	-5.2860408	-6.5005663
C	-5.0020603	0.3802237	3.1401634
H	-4.6567698	1.1490727	3.8572608
O	-5.8819007	-0.4233508	3.4690418
C	-4.3326535	0.4045884	1.7946601
H	-3.2485823	0.2720247	1.9098269
H	-4.7329312	-0.3841802	1.1541926
H	-4.4833456	1.3811119	1.3155914
C	-5.1607473	1.8785861	-2.0366261
H	-5.5102898	2.7894730	-1.5144306
O	-5.3344038	1.7572306	-3.2544637
C	-4.4879660	0.8534912	-1.1673598
H	-5.1711883	0.5254119	-0.3726158
H	-4.1768440	-0.0075924	-1.7626034
H	-3.6133238	1.2946597	-0.6711901
C	3.9160396	-4.0481855	1.1046169
H	3.8870799	-3.6948136	2.1528881
O	2.9337966	-4.6169427	0.6149985
C	5.1998078	-3.7839611	0.3689522
H	6.0395818	-4.2610770	0.8916251
H	5.1399359	-4.1640295	-0.6530752
H	5.4093604	-2.7062073	0.3503009
C	-2.6826187	4.4303450	-1.5742856
H	-2.8889456	4.2741035	-2.6502040
O	-2.3569356	5.5491890	-1.1618165
C	-2.8287651	3.2129851	-0.7049444
H	-2.1520958	2.4195767	-1.0494274
H	-2.6074867	3.4578222	0.3360490
H	-3.8491671	2.8145866	-0.7815718
C	-1.6855590	2.8898320	4.0590915
H	-0.7741415	3.4682923	4.3025760
O	-2.7636471	3.1794469	4.5899975
C	-1.4974233	1.7735903	3.0703106
H	-0.7539842	1.0578306	3.4458545
H	-2.4436993	1.2592362	2.8898163
H	-1.1061304	2.1695718	2.1237896
C	4.3703913	-3.6596423	-3.8530584
H	4.1856569	-2.6721766	-4.3171355
O	3.7854352	-3.9735127	-2.8103102
C	5.3517200	-4.5395892	-4.5753918
H	6.3240891	-4.0352969	-4.6543499
H	5.4723508	-5.4893206	-4.0500012
H	5.0074204	-4.7263828	-5.6012472
C	-0.8374941	3.5701941	-3.9500965
H	-1.3071232	4.3925111	-4.5226575
O	-0.4261392	2.5627983	-4.5365717
C	-0.7515383	3.7839611	-2.4648379
H	-1.7557120	3.9336603	-2.0461826
H	-0.2765705	2.9272203	-1.9821602
H	-0.1783858	4.6949319	-2.2470268
C	4.9270753	-3.4530982	-1.9069830
H	4.2579157	-4.2111598	-2.3565949
O	4.4705592	-2.6050123	-1.1321569
C	6.3724768	-3.5479027	-2.3081122
H	6.4687194	-3.4546530	-3.3981071
H	6.9568772	-2.7652668	-1.8197128
H	6.7755975	-4.5328341	-2.0375256
C	3.0989481	1.8308355	-3.7753793
H	3.6238588	2.5036195	-3.0708132
O	2.2028243	1.0834630	-3.3674474
C	3.5565117	1.9082379	-5.2049675
H	4.6267384	1.6713011	-5.2722178
H	2.9871010	1.2141405	-5.8267207
H	3.4338184	2.9308292	-5.5858437
C	1.3997410	0.1885214	-5.8464963
H	1.2135180	1.2773165	-5.7799454
O	1.7475445	-0.4432191	-4.8425298
C	1.1995053	-0.4192736	-7.2064849
H	1.8610696	0.0645882	-7.9374139
H	1.4039709	-1.4916817	-7.1798093
H	0.1702294	-0.2481412	-7.5487102
C	3.9244153	1.7682955	3.6795150
H	4.0527980	0.9102803	4.3664725
O	2.9603578	1.8045532	2.9066693
C	4.9814452	2.8329156	3.7708914
H	5.9702423	2.4019307	3.5645439
H	4.7762552	3.6372550	3.0613057
H	5.0197884	3.2404497	4.7898414
C	-4.1515627	-1.2220813	3.0395864
H	-3.8149203	-0.3555089	3.6398423
O	-3.4464580	-2.2345110	2.9632612
C	-5.4819564	-1.0592035	2.3594385
H	-5.4579689	-0.1922382	1.6857600
H	-5.7339756	-1.9578335	1.7924050
H	-6.2646640	-0.8606799	3.1035962
C	-0.4767501	-3.8808206	-5.9492229
H	-0.3624915	-2.7802540	-5.9659882
O	-0.2359314	-4.5131882	-4.9147521
C	-0.9301913	-4.5030601	-7.2400703
H	-0.2196419	-4.2665177	-8.0433225
H	-1.0157200	-5.5864699	-7.1329019
H	-1.8996239	-4.0842329	-7.5410643
C	0.0399637	-6.0504562	-4.8835303
H	0.4870881	-5.2935988	-5.5557130
O	0.1468808	-5.9311466	-3.6578281
C	-0.6744503	-7.1815319	-5.5686279
H	0.0151631	-7.7138016	-6.2373348
H	-1.0825730	-7.8775165	-4.8326809
H	-1.4859898	-6.7903825	-6.1964966
C	-4.3807512	-0.8053955	4.1824249
H	-4.0602618	0.0142690	4.8532599
O	-5.4558051	-1.3828847	4.3793446
C	-3.4315552	-1.1336668	3.0642375
H	-2.4518367	-1.4170164	3.4715600
H	-3.8259025	-1.9498811	2.4552539
H	-3.2690972	-0.2486614	2.4348042
C	5.0018324	-3.0779209	-0.2963167
H	4.6315487	-3.3468392	-1.3038661
O	4.4449744	-2.1835908	0.3502859
C	6.1876871	-3.8645554	0.1874529
H	7.0299278	-3.7432433	-0.5067811
H	6.4840558	-3.5345141	1.1853582
H	5.9468083	-4.9356826	0.2092995
C	2.7527479	-2.5472434	-5.4812750
H	2.8700826	-1.5121620	-5.8546675
O	2.8718211	-2.7880268	-4.2746860
C	2.4497971	-3.5815638	-6.5288818
H	3.2484748	-3.6009685	-7.2823964
H	2.3506271	-4.5692017	-6.0735647
H	1.5221716	-3.3237087	-7.0569301
C	1.1763082	-8.0480673	0.8951414
H	0.6853761	-7.9153171	-0.0876841
O	1.0850796	-7.1671185	1.7574747
C	1.9275396	-9.3376521	1.0731875
H	2.7108508	-9.4269597	0.3086651
H	2.3776868	-9.3837611	2.0670778
H	1.2506844	-10.1911536	0.9345666
C	0.9413528	0.0967625	7.1608505
H	0.9024332	1.0009991	6.5241211
O	1.0159848	-1.0231469	6.6429264
C	0.8970264	0.3472535	8.6421902
H	-0.0224347	0.8864438	8.9065987
H	0.9401176	-0.5959762	9.1908591
H	1.7372111	0.9874994	8.9421710
C	1.9396825	-3.4356105	7.3903041
H	2.1310936	-4.2989142	8.0556245
O	1.7435239	-3.6150726	6.1831059
C	1.9408146	-2.0904314	8.0608039
H	2.9089965	-1.9119299	8.5474329
H	1.7446112	-1.3003169	7.3329304
H	1.1789163	-2.0618086	8.8510602
C	-3.7932169	1.3777876	-3.7407810
H	-4.3683884	0.4490964	-3.9176804
O	-3.8897636	2.3259725	-4.5279509
C	-2.9261980	1.3768321	-2.5130371
H	-2.2000091	0.5545964	-2.5642756
H	-2.3978626	2.3277749	-2.4174011
H	-3.5387610	1.2032888	-1.6183514
C	-5.0157104	-0.6910826	2.7620057
H	-5.1579369	-1.5464263	3.4495678
O	-5.8669647	0.2031485	2.7009402
C	-3.7515358	-0.7185248	1.9494863
H	-3.7149362	-1.6305328	1.3387911
H	-3.6939471	0.1591896	1.3022787
H	-2.8768719	-0.7460471	2.6128258
C	5.4957800	-2.1138773	1.1619235
H	5.9347151	-1.0991350	1.1148399
O	4.2807470	-2.2717263	0.9982450
C	6.4692580	-3.2270956	1.4305566
H	6.9845893	-3.0558890	2.3851082
H	5.9520452	-4.1884527	1.4598882
H	7.2432476	-3.2479541	0.6518922
C	0.6933310	-3.4430559	7.4592784
H	-0.3103915	-3.6473174	7.8780876
O	1.0847759	-4.0571439	6.4604396
C	1.4959022	-2.3995033	8.1845064
H	1.6395697	-2.6945224	9.2325380
H	2.4675485	-2.2629901	7.7050856
H	0.9524345	-1.4453890	8.1955512
