367
Analysis from 49 .xyz files
C	0.0000000	0.0000000	0.0000000
O	-1.2351588	0.0000000	0.0000000
O	0.7398589	1.1583231	0.0000000
H	0.1638040	1.9546759	-0.0135888
N	0.3617839	-2.3516401	0.6967930
C	0.6236105	-1.2327216	2.8274069
H	1.0416563	-0.3277281	2.4033173
H	0.5097650	-1.2548695	3.9039987
C	0.2486263	-2.3067114	2.0852873
C	-0.3263728	-3.5427692	2.7431590
H	0.3266209	-4.4147826	2.6123367
H	-0.4488162	-3.3745335	3.8150355
H	-1.3053169	-3.8042260	2.3234985
C	0.9635386	-3.2876419	-1.3827677
C	0.0625446	-3.5196790	-0.1589999
C	0.9004459	-1.2272210	-0.0650412
C	0.9789351	-1.7521144	-1.5343129
H	1.9734351	-3.6610457	-1.1787441
H	0.5887384	-3.7881626	-2.2798326
H	0.2964724	-4.4544716	0.3543263
H	-0.9987824	-3.5458875	-0.4478443
H	1.8907266	-0.9373351	0.3079065
H	0.0972026	-1.4224718	-2.0954932
H	1.8673928	-1.3763685	-2.0461949
C	-2.9409352	3.0347166	1.3351660
H	-3.6465240	2.2943857	0.9125106
O	-2.0612172	3.5298833	0.6217808
C	-3.1437965	3.3647339	2.7874104
H	-3.0577097	2.4552427	3.3968870
H	-2.4073551	4.0998205	3.1188895
H	-4.1562759	3.7586259	2.9472478
C	-1.5746237	4.5629350	2.0575577
H	-1.8148718	5.6337996	2.1993765
O	-1.3176534	4.1296739	0.9287250
C	-1.5896987	3.7265128	3.3062566
H	-2.5793247	3.7732336	3.7800756
H	-1.3425248	2.6884540	3.0740592
H	-0.8704024	4.1230889	4.0350595
C	-2.4531111	4.3066988	-0.0224329
H	-2.2520427	4.1003185	1.0460059
O	-1.7298606	3.8141543	-0.8955428
C	-3.6310377	5.1987944	-0.2976283
H	-3.4927051	6.1699160	0.1961670
H	-3.7548997	5.3477973	-1.3723530
H	-4.5449893	4.7574827	0.1215967
C	-2.3448591	3.8238527	0.4847442
H	-2.6597755	3.4909391	-0.5225190
O	-1.2146489	4.2939760	0.6568522
C	-3.3712430	3.6582754	1.5701925
H	-3.6616303	2.6027596	1.6574185
H	-2.9773489	4.0108029	2.5257807
H	-4.2817805	4.2175652	1.3173493
C	-0.6528605	5.2990447	1.8832339
H	-1.1900424	6.2496809	1.7034867
O	-0.4970737	4.4912299	0.9606409
C	-0.1551957	5.0934826	3.2864987
H	-0.9949248	5.1260678	3.9934924
H	0.3602376	4.1345899	3.3726975
H	0.5275937	5.9061764	3.5678182
C	-1.3375389	5.2407371	-0.6784003
H	-1.5794004	5.2188439	0.4012323
O	-0.9264234	4.2203810	-1.2421996
C	-1.5460863	6.5637158	-1.3605393
H	-0.9336067	7.3375881	-0.8788367
H	-1.2840745	6.4938916	-2.4183914
H	-2.5928797	6.8797064	-1.2596099
C	-2.7468399	3.7270239	-1.5550895
H	-2.3152788	3.5484203	-2.5583038
O	-2.0502492	3.5766260	-0.5450627
C	-4.1893033	4.1490272	-1.5380425
H	-4.8117778	3.3857186	-2.0237713
H	-4.5305781	4.3026258	-0.5121205
H	-4.3183792	5.0758333	-2.1126581
C	-2.4788711	4.8776108	0.6805122
H	-2.9462430	5.2832431	-0.2368803
O	-1.5151976	4.1079753	0.5968046
C	-3.0966213	5.3290652	1.9742091
H	-4.1579796	5.0485643	2.0039507
H	-2.5749652	4.8824271	2.8233062
H	-3.0559340	6.4237655	2.0502965
C	0.4697976	4.3165560	2.5634541
H	0.9781764	4.9841657	3.2848633
O	0.8393241	4.2820481	1.3843564
C	-0.6571220	3.4961825	3.1256973
H	-1.4267517	4.1536173	3.5517211
H	-1.0989786	2.8697238	2.3479511
H	-0.2913350	2.8638228	3.9455354
C	-1.1166985	3.9176730	-2.5620510
H	-0.4701713	3.1422654	-3.0151830
O	-1.3001834	3.9348160	-1.3397370
C	-1.7207755	4.8996163	-3.5263935
H	-2.3288638	4.3707764	-4.2724522
H	-2.3404858	5.6251606	-2.9952423
H	-0.9286254	5.4238952	-4.0772502
C	-0.3688107	3.4113641	-3.2376245
H	-0.9219658	3.7267637	-4.1426800
O	-0.7531788	3.7717035	-2.1193987
C	0.8348987	2.5459126	-3.4849207
H	1.5506838	3.0705710	-4.1317840
H	1.3172580	2.2831846	-2.5410562
H	0.5395851	1.6311132	-4.0157177
C	-4.0947717	-1.9272799	1.7149042
H	-3.1098727	-1.5309036	1.4027458
O	-4.4613102	-3.0452694	1.3357457
C	-4.9045789	-1.0218365	2.6000386
H	-5.0897266	-0.0652907	2.0932969
H	-5.8564437	-1.4908218	2.8580752
H	-4.3458940	-0.7917427	3.5169581
C	-0.8157694	5.6729277	0.1675173
H	-0.4875575	6.0374967	-0.8244249
O	-1.0175676	4.4669425	0.3488714
C	-0.9845791	6.7311894	1.2213975
H	-1.7216324	7.4763774	0.8935345
H	-1.3086986	6.2841648	2.1635718
H	-0.0382456	7.2670752	1.3733597
C	0.6436548	4.1724422	2.1927806
H	1.1772314	3.2413865	2.4629919
O	0.5717723	4.5245675	1.0100496
C	0.0441981	4.9308424	3.3436755
H	0.8270980	5.2068999	4.0626379
H	-0.4604480	5.8311489	2.9868040
H	-0.6712829	4.2956977	3.8826483
C	-2.0062478	3.8946683	1.2411009
H	-1.1288616	3.6284958	1.8607204
O	-1.9508453	3.7895412	0.0106980
C	-3.2122432	4.3726029	2.0002000
H	-2.9572889	5.2607937	2.5936326
H	-4.0265405	4.6116639	1.3129253
H	-3.5419989	3.6017063	2.7092790
C	-1.6407226	3.0945312	-2.2610767
H	-2.3087547	2.9787267	-1.3864880
O	-0.5403138	3.6426906	-2.1321046
C	-2.1722236	2.5489305	-3.5568022
H	-3.1217699	3.0384137	-3.8113894
H	-1.4511690	2.7053796	-4.3618989
H	-2.3856726	1.4765382	-3.4556702
C	-0.6669471	5.1530927	-1.3587079
H	-0.2481386	4.9032316	-2.3520617
O	-0.1308610	4.7187405	-0.3330559
C	-1.8892569	6.0276184	-1.3742506
H	-2.6914549	5.5451148	-1.9484594
H	-2.2327709	6.2226133	-0.3561388
H	-1.6671045	6.9781080	-1.8772726
C	-0.7156798	5.2096181	1.4665872
H	-0.4709032	5.0440720	2.5330119
O	-1.1666290	4.2834915	0.7832524
C	-0.4603447	6.5989788	0.9532073
H	0.5980596	6.8611995	1.0838503
H	-0.7288924	6.6716857	-0.1028100
H	-1.0414084	7.3284401	1.5329179
C	-0.4653478	3.7467759	-3.5139172
H	-0.7624689	4.7857740	-3.7522127
O	-0.5088672	3.3419695	-2.3467626
C	-0.0255211	2.9155043	-4.6863582
H	0.8318087	3.3882154	-5.1839290
H	0.2478814	1.9096345	-4.3606990
H	-0.8307768	2.8564291	-5.4305938
C	1.2677283	5.1104982	-0.0932017
H	0.8371194	5.2681944	0.9139183
O	0.6037151	4.5456989	-0.9696151
C	2.6676254	5.6229864	-0.2848309
H	3.3466949	5.1438165	0.4330185
H	3.0108788	5.4259547	-1.3026386
H	2.7053322	6.7020799	-0.0849585
C	-3.5388826	3.4396394	-0.8346109
H	-3.6205071	3.7779899	0.2158362
O	-2.9893375	4.1589010	-1.6764395
C	-4.1305034	2.0890719	-1.1262104
H	-5.1980297	2.0808913	-0.8685912
H	-4.0055672	1.8367141	-2.1813328
H	-3.6484980	1.3233790	-0.5039577
C	-1.6374820	4.4022622	-0.5947164
H	-1.6640423	4.5430634	0.5025769
O	-0.5550648	4.3866089	-1.1914913
C	-2.9764832	4.2398782	-1.2578797
H	-3.6038002	5.1198412	-1.0624693
H	-2.8559661	4.1068848	-2.3350821
H	-3.5043597	3.3743915	-0.8358697
C	-3.0062215	-2.9685835	-3.8395615
H	-3.9578501	-2.6869752	-3.3499877
O	-1.9914369	-3.1571418	-3.1593629
C	-3.0619823	-3.0938476	-5.3363172
H	-3.3836050	-2.1435505	-5.7830177
H	-2.0838306	-3.3735863	-5.7332330
H	-3.8066541	-3.8475988	-5.6246512
C	-3.0218195	3.4867391	-1.4627852
H	-3.4269848	3.7266723	-0.4613582
O	-2.0054315	2.7913829	-1.5697783
C	-3.7869624	4.0584482	-2.6232949
H	-3.8262604	5.1532935	-2.5470318
H	-3.3189082	3.7728274	-3.5677117
H	-4.8253828	3.7019424	-2.6032904
C	-1.5997392	2.5986224	-2.9849773
H	-1.1239332	3.2642972	-3.7300065
O	-1.7216640	2.9685588	-1.8118219
C	-2.0609219	1.2675788	-3.5091065
H	-1.2131635	0.7159855	-3.9370054
H	-2.5160638	0.6788649	-2.7098326
H	-2.7867837	1.4121417	-4.3203029
C	-4.9685707	-0.6264712	2.5862655
H	-4.3821696	-0.1024467	3.3647993
O	-6.0884819	-1.0771034	2.8522390
C	-4.3066607	-0.7330208	1.2410516
H	-3.3490508	-1.2628283	1.3323419
H	-4.9532271	-1.2619709	0.5376737
H	-4.0789895	0.2682480	0.8518988
C	-4.0913860	-0.3255554	0.1615596
H	-3.8849204	-0.7008722	-0.8587796
O	-4.3850046	0.8622575	0.3373461
C	-3.9860825	-1.3468439	1.2592658
H	-2.9776217	-1.7813531	1.2752479
H	-4.2049566	-0.8914452	2.2273995
H	-4.6844794	-2.1737135	1.0739505
C	3.9576295	-5.7023924	0.9672859
H	3.8105814	-5.4731074	2.0398474
O	2.9799074	-5.8625352	0.2280796
C	5.3885138	-5.7960028	0.5168578
H	5.9134170	-6.5746671	1.0862482
H	5.4393467	-6.0240754	-0.5499016
H	5.9101253	-4.8507633	0.7174993
C	0.3453882	4.5227905	-1.9692075
H	0.0604445	4.0740765	-2.9397978
O	-0.4443096	4.4963605	-1.0185808
C	1.7161956	5.1371575	-1.9190255
H	1.8034568	5.9279966	-2.6759970
H	1.9124562	5.5536114	-0.9287606
H	2.4770652	4.3828479	-2.1596660
C	-0.9155501	-7.8961716	1.0538217
H	-0.8035876	-8.0255563	-0.0394793
O	-0.3863640	-6.9339782	1.6214112
C	-1.7319038	-8.9495393	1.7488478
H	-1.2865169	-9.9402392	1.5870114
H	-1.7897708	-8.7435781	2.8197390
H	-2.7440482	-8.9839723	1.3243581
C	5.0125110	-1.6403672	0.1218546
H	4.9759885	-0.8397583	-0.6412144
O	4.2867269	-2.6349248	0.0118329
C	5.9806597	-1.4147805	1.2491863
H	5.7374993	-0.4816267	1.7746802
H	5.9506930	-2.2502589	1.9517919
H	6.9991560	-1.3003178	0.8550075
C	5.7892001	-2.2068730	-2.4648001
H	6.2802696	-3.0676526	-1.9723652
O	4.5813682	-2.0037072	-2.2978336
C	6.6860572	-1.3504498	-3.3140733
H	7.1447521	-1.9552085	-4.1077437
H	6.1208168	-0.5287559	-3.7589320
H	7.5080418	-0.9473215	-2.7077383
C	4.4990121	-1.8094496	1.5374453
H	3.9547383	-1.2336891	2.3100052
O	3.9368028	-2.7375456	0.9453552
C	5.9168690	-1.3771540	1.2886874
H	6.5020269	-1.4505261	2.2151072
H	6.3752512	-1.9966605	0.5149469
H	5.9418219	-0.3234130	0.9807583
C	3.4488159	-4.6613810	3.5356988
H	2.6149145	-4.4314132	4.2258483
O	3.2311002	-5.2688140	2.4813568
C	4.8044731	-4.1883481	3.9801214
H	5.0598796	-4.6330064	4.9512514
H	5.5637447	-4.4566259	3.2424828
H	4.7965242	-3.0995410	4.1224216
C	4.3023848	-4.2032731	1.0533139
H	4.3864702	-3.3698409	1.7764344
O	3.2617060	-4.8674846	0.9914857
C	5.5139698	-4.4393310	0.1957495
H	6.3880702	-4.6489876	0.8266532
H	5.3433892	-5.2760722	-0.4849435
H	5.7495581	-3.5356666	-0.3819202
C	-2.1787250	-1.8706989	-4.0353104
H	-1.2999991	-1.4054815	-4.5211051
O	-2.0574162	-2.9413401	-3.4294856
C	-3.4700825	-1.1144503	-4.1751743
H	-3.7202560	-0.9876009	-5.2369508
H	-4.2797195	-1.6433778	-3.6679264
H	-3.3652563	-0.1067156	-3.7517414
C	-2.5107167	-7.0384701	0.0742193
H	-1.8798316	-7.5962789	-0.6437057
O	-2.1627067	-5.9186295	0.4651899
C	-3.7688980	-7.7373012	0.5074548
H	-3.5239672	-8.6998199	0.9760840
H	-4.3272091	-7.1174347	1.2121752
H	-4.3965633	-7.9605033	-0.3654889
C	-4.0974958	2.8367218	2.7089636
H	-3.9222156	3.6499130	1.9791830
O	-5.0544300	2.8996091	3.4889215
C	-3.1102088	1.7043260	2.6639935
H	-2.0943964	2.0817481	2.8421075
H	-3.3585588	0.9506019	3.4141928
H	-3.1073177	1.2453056	1.6664438
C	-4.5758993	3.6174807	0.0231812
H	-4.6137979	3.8146362	1.1114257
O	-5.5793370	3.8005488	-0.6751104
C	-3.2536751	3.1299905	-0.4994608
H	-2.9686645	2.1974076	0.0056181
H	-3.3069754	2.9622575	-1.5772370
H	-2.4667589	3.8633025	-0.2784866
C	-2.8649292	-4.8540629	-3.2167651
H	-3.6941158	-4.6015603	-2.5288153
O	-1.9567794	-4.0399136	-3.4178543
C	-2.9438899	-6.2139024	-3.8521231
H	-3.8761474	-6.3095952	-4.4246488
H	-2.0893632	-6.3777140	-4.5120676
H	-2.9664968	-6.9918626	-3.0774747
C	-3.0266451	0.3249275	5.4682002
H	-2.2298576	1.0749061	5.3031404
O	-3.6965431	0.3507928	6.5067472
C	-3.2080408	-0.6786820	4.3641433
H	-2.2743327	-1.2332768	4.2008622
H	-4.0112747	-1.3764945	4.6100092
H	-3.4406322	-0.1653416	3.4217016
C	-4.4350978	-0.1092848	-3.7011688
H	-4.9068046	-1.1102206	-3.6869223
O	-5.0615061	0.8649217	-4.1330792
C	-3.0297161	-0.0497400	-3.1716076
H	-2.3794184	-0.7190947	-3.7505066
H	-2.6447662	0.9709233	-3.2229560
H	-3.0026523	-0.4025943	-2.1321006
C	-1.0360573	1.1973364	5.1948426
H	-1.1340329	1.0008575	4.1102323
O	-0.9116321	0.2560817	5.9864045
C	-1.0671182	2.6459338	5.5944410
H	-2.0089102	3.1073710	5.2686337
H	-0.9644889	2.7461487	6.6770309
H	-0.2567035	3.1929489	5.0946251
C	3.8668638	3.4047605	0.9572195
H	4.7985804	3.7928072	0.5034500
O	2.9205384	4.1685938	1.1786671
C	3.8615439	1.9333096	1.2636213
H	4.6804191	1.6882567	1.9531426
H	2.9079413	1.6385333	1.7067080
H	4.0364073	1.3559386	0.3460818
C	-2.1046290	1.8494957	4.9509505
H	-3.2077099	1.7991721	5.0234965
O	-1.4255736	2.0523938	5.9637329
C	-1.5383744	1.6572068	3.5720165
H	-1.9397888	2.4181930	2.8895115
H	-0.4484642	1.7219769	3.5938650
H	-1.8421781	0.6807871	3.1718650
C	-2.5890472	0.0232045	5.1608181
H	-2.1026521	1.0135637	5.0760164
O	-1.9019059	-0.9947345	5.3009933
C	-4.0904958	0.0328357	5.0927209
H	-4.4225641	0.4730408	4.1429856
H	-4.4838509	-0.9817753	5.1844433
H	-4.5007780	0.6616368	5.8940267
C	-3.5894405	-0.0090192	4.3335216
H	-2.7691531	0.4718067	3.7673787
O	-4.4107371	0.6844881	4.9438751
C	-3.6091599	-1.5113373	4.2919334
H	-2.6671469	-1.9124457	4.6891369
H	-4.4477080	-1.8989184	4.8743374
H	-3.6888595	-1.8592982	3.2534803
C	-4.4372592	-3.7419229	-1.1425417
H	-3.7861840	-3.0644621	-1.7271192
O	-4.9751953	-4.7104011	-1.6908909
C	-4.5974925	-3.3900197	0.3098933
H	-5.0146474	-2.3790413	0.4096492
H	-5.2527910	-4.1082346	0.8072140
H	-3.6179234	-3.3789851	0.8060143
C	4.9278399	2.4085807	-1.4030630
H	5.4313367	2.9427523	-0.5749720
O	4.6895668	2.9951724	-2.4647353
C	4.5784187	0.9728700	-1.1278947
H	3.9168161	0.9061276	-0.2538957
H	4.0874146	0.5259813	-1.9949484
H	5.4851175	0.4038279	-0.8831464
