374
Analysis from 50 .xyz files
C	0.0000000	0.0000000	0.0000000
O	-1.2298043	0.0000000	0.0000000
O	0.6880598	1.1839126	0.0000000
H	1.6739428	1.0881856	-0.0510305
N	2.0238881	-1.2376115	0.8546144
C	3.3907774	0.0440221	-0.6870116
H	2.6995680	-0.0219981	-1.5195548
H	4.3321619	0.5373149	-0.8875583
C	4.2745696	-0.5376842	1.5733421
H	4.6844997	-1.5378640	1.7617110
H	5.0964669	0.1018010	1.2467888
H	3.8956084	-0.1505165	2.5260903
C	0.8812495	-3.1587140	1.6066660
C	1.7930637	-2.0163414	2.0884515
C	0.8378773	-1.3031375	-0.0224329
C	0.0104642	-2.5094418	0.5038636
H	1.4956539	-3.9648695	1.1897759
H	0.2783385	-3.5787831	2.4172354
H	2.7338230	-2.3784485	2.5058611
H	1.2915380	-1.4061990	2.8553705
H	1.1611412	-1.4664608	-1.0606500
H	-0.9411346	-2.1443447	0.8977129
H	-0.2215049	-3.2121740	-0.3004042
C	3.1948641	-0.5767958	0.5129718
C	1.8186207	2.2478052	4.0582579
H	2.5026153	2.8833040	3.4642246
O	2.1224577	1.0761603	4.3091432
C	0.5477305	2.9117952	4.5088504
H	-0.0202919	3.2691812	3.6395561
H	-0.0639226	2.2149271	5.0857664
H	0.7789483	3.7938339	5.1206993
C	-1.2733031	0.8667855	4.1706471
H	-0.5748749	1.3918960	4.8496462
O	-1.0762926	-0.3167632	3.8733064
C	-2.4273234	1.6887738	3.6689990
H	-2.0565080	2.5700951	3.1287994
H	-3.0620541	1.0938221	3.0089034
H	-3.0208538	2.0617401	4.5142393
C	-1.8753380	0.5831451	3.5628367
H	-2.3547703	1.2388270	2.8112989
O	-0.6446447	0.4712600	3.5926357
C	-2.8162678	-0.1236282	4.4978236
H	-3.5169205	-0.7481200	3.9276108
H	-2.2598300	-0.7455581	5.2022077
H	-3.4209884	0.6083243	5.0495230
C	-0.7669411	-2.2722421	-4.1524616
H	-1.5912134	-3.0105439	-4.1607408
O	0.2594291	-2.4965557	-3.5011093
C	-1.0022609	-1.0319560	-4.9681779
H	-1.9022362	-0.5119716	-4.6136256
H	-0.1418858	-0.3625680	-4.9029777
H	-1.1834257	-1.2990673	-6.0177703
C	0.1173411	-1.8706669	-4.4514870
H	-0.6131048	-1.1279609	-4.0780979
O	0.8591200	-2.4626809	-3.6594671
C	0.1216744	-2.0808777	-5.9397311
H	0.3351421	-1.1343681	-6.4541219
H	0.8691165	-2.8267428	-6.2182853
H	-0.8704496	-2.4084355	-6.2776797
C	-3.3451313	-2.5295362	2.6330714
H	-3.2040721	-1.5382230	3.1042225
O	-2.5180161	-3.4286236	2.8215769
C	-4.5771667	-2.6719355	1.7840192
H	-4.5652172	-1.9305292	0.9739447
H	-4.6358064	-3.6769924	1.3609369
H	-5.4745744	-2.4711245	2.3841422
C	-1.0388524	4.1305332	-0.9980843
H	-0.6449872	3.1882486	-1.4241743
O	-0.3540751	5.1591493	-1.0303521
C	-2.4175256	4.0451228	-0.4055951
H	-2.4374956	3.2967309	0.3978709
H	-2.7247570	5.0158482	-0.0107813
H	-3.1356179	3.7121456	-1.1667016
C	-1.4126425	4.3969784	-1.7503465
H	-1.8874137	4.9914872	-0.9467706
O	-0.4351687	4.8466344	-2.3589241
C	-2.0383246	3.0569129	-2.0183477
H	-3.0944132	3.1813750	-2.2926344
H	-1.5085423	2.5415630	-2.8222892
H	-2.0175043	2.4418238	-1.1089274
C	-3.6257726	1.9501089	1.2128154
H	-2.9712316	2.4502220	1.9517644
O	-4.3530023	1.0137460	1.5626350
C	-3.5502986	2.4908125	-0.1875493
H	-2.5223456	2.4152692	-0.5665650
H	-4.2258089	1.9412021	-0.8464809
H	-3.8133500	3.5569065	-0.1953470
C	-1.5505680	4.3072594	-1.3366601
H	-0.4464553	4.2936708	-1.2636308
O	-2.1371154	5.3441791	-1.6664658
C	-2.2355345	3.0091986	-1.0127198
H	-1.9855009	2.6951713	0.0094920
H	-3.3182101	3.1135310	-1.1102139
H	-1.8791697	2.2164719	-1.6838395
C	-2.9940439	4.5418956	-0.2626900
H	-2.1738009	5.2310311	-0.5399562
O	-4.0032249	4.9759402	0.3040295
C	-2.7753177	3.0991453	-0.6228411
H	-1.8635201	2.7234094	-0.1396285
H	-3.6304146	2.4941596	-0.3140075
H	-2.6242481	2.9990543	-1.7058800
C	-1.0134095	-1.4603009	-3.3933116
H	-0.1244244	-1.1489086	-3.9741070
O	-1.0825888	-2.6051227	-2.9322160
C	-2.0763564	-0.4108155	-3.2265717
H	-2.4357802	-0.0779520	-4.2094569
H	-2.9123779	-0.8027175	-2.6434272
H	-1.6591583	0.4729209	-2.7258032
C	-0.0870930	0.6661193	4.5158565
H	-0.6574516	-0.2713257	4.6589332
O	1.1340792	0.6838222	4.7067415
C	-0.8982471	1.8571051	4.0884691
H	-1.6800917	2.0673679	4.8304634
H	-0.2577454	2.7338493	3.9716191
H	-1.4100076	1.6448378	3.1403884
C	1.8697062	-1.4147703	-5.0348966
H	2.4531627	-2.0525755	-5.7258133
O	2.0590456	-1.4872598	-3.8155083
C	0.8742271	-0.4972165	-5.6877325
H	0.1512841	-1.0801330	-6.2739138
H	0.3463524	0.0919517	-4.9348674
H	1.3843422	0.1743327	-6.3910231
C	-2.6499743	-0.1359481	-3.5396858
H	-2.4105680	0.2336854	-2.5244821
O	-1.7497483	-0.5596391	-4.2732329
C	-4.1020793	-0.0768154	-3.9230556
H	-4.4663347	0.9575388	-3.8640950
H	-4.2460134	-0.4595202	-4.9356744
H	-4.7032169	-0.6651754	-3.2171664
C	4.2794593	-4.1419529	-1.1198292
H	3.5030213	-4.8946846	-1.3546096
O	4.4084357	-3.7245998	0.0365417
C	5.1208406	-3.6971376	-2.2831414
H	4.4836517	-3.2668893	-3.0673120
H	5.8572442	-2.9575837	-1.9616657
H	5.6340704	-4.5592513	-2.7294243
C	-3.9342868	1.2933317	2.0491546
H	-4.1624932	1.8318281	1.1097259
O	-4.6606318	0.3660360	2.4240648
C	-2.7173054	1.7728606	2.7894831
H	-2.8260277	2.8349357	3.0468213
H	-2.5683854	1.1880142	3.6996228
H	-1.8291636	1.6913478	2.1488794
C	4.4364139	-4.0435153	5.6710447
H	5.3954262	-3.9475686	6.2148026
O	4.2106201	-3.3356243	4.6831584
C	3.4815369	-5.0658813	6.2206406
H	3.2360772	-4.8303791	7.2648318
H	2.5662829	-5.0929735	5.6255333
H	3.9507356	-6.0586880	6.2215910
C	-3.1877865	3.3502841	-2.2381110
H	-2.4732563	4.1169611	-2.5934077
O	-4.0066519	2.8560583	-3.0211899
C	-3.0737099	2.9849699	-0.7846289
H	-3.2210653	3.8753225	-0.1588450
H	-3.8131133	2.2253724	-0.5221960
H	-2.0651019	2.6087331	-0.5679054
C	4.6785808	-5.5935293	2.4879497
H	3.8750572	-6.3178576	2.2549665
O	4.4121471	-4.5415789	3.0799171
C	6.0567272	-5.9906658	2.0384243
H	6.0693823	-6.1450836	0.9512068
H	6.7833772	-5.2214730	2.3084228
H	6.3429091	-6.9462395	2.4975455
C	4.9830123	-4.8419734	3.7934728
H	4.0521185	-4.7525281	4.3850970
O	5.3755979	-3.8909967	3.1082488
C	5.6898551	-6.1643644	3.8970742
H	5.0239963	-6.9748964	3.5719328
H	6.5937511	-6.1637301	3.2842542
H	5.9531190	-6.3708587	4.9429545
C	-1.5309891	4.2516001	3.1250236
H	-2.2610639	4.7405536	2.4523437
O	-1.2473285	4.7677496	4.2118256
C	-0.9458712	2.9638008	2.6168033
H	-0.4362510	3.1327499	1.6587895
H	-0.2392934	2.5528649	3.3409968
H	-1.7450227	2.2351532	2.4264273
C	-2.2756590	-1.0269221	4.5477300
H	-3.3774074	-0.9844858	4.6422413
O	-1.6934839	-2.1171907	4.5676967
C	-1.5882050	0.3014911	4.4000695
H	-1.8116095	0.9404308	5.2648778
H	-0.5081276	0.1654563	4.3134423
H	-1.9665650	0.8258453	3.5125394
C	-3.7046838	0.3826193	-2.8468026
H	-3.2995520	0.0168418	-1.8841719
O	-3.3260771	-0.1214515	-3.9100908
C	-4.7094654	1.4956648	-2.7437394
H	-4.2640935	2.3603625	-2.2338485
H	-5.0543417	1.7924850	-3.7364805
H	-5.5661150	1.1759062	-2.1356940
C	-0.5075934	3.2041198	2.3941597
H	-0.9004821	3.0308653	1.3742557
O	-0.3394562	2.2514138	3.1636358
C	-0.2123753	4.6371864	2.7380264
H	-1.1216239	5.2447330	2.6370261
H	0.1694461	4.7146813	3.7582145
H	0.5241372	5.0499482	2.0358937
C	0.8446654	0.8407407	5.9798936
H	1.0475385	1.8779261	6.3080277
O	1.4547280	0.3652662	5.0156531
C	-0.1919972	0.1014804	6.7785816
H	-1.1481808	0.6407126	6.7471435
H	-0.3273481	-0.9089506	6.3870642
H	0.1089960	0.0513758	7.8334305
C	-3.1916669	2.2421294	0.8325318
H	-2.7383586	3.0239620	0.1939144
O	-2.8366833	2.1212654	2.0104073
C	-4.2288357	1.3834585	0.1646670
H	-3.7939674	0.8743370	-0.7058108
H	-4.6207753	0.6429381	0.8650881
H	-5.0506323	2.0074001	-0.2110461
C	-4.3977580	2.9465661	-1.9352465
H	-4.2085642	3.9750931	-1.5734164
O	-5.4123426	2.6990852	-2.5965963
C	-3.3553452	1.9292274	-1.5644699
H	-3.2554636	1.8717838	-0.4723294
H	-3.6216154	0.9471241	-1.9608916
H	-2.3755378	2.2323760	-1.9567602
C	2.1434784	-1.8579420	6.4717983
H	1.0869071	-2.1331675	6.6520498
O	2.4795822	-1.3657272	5.3888528
C	3.0846730	-2.1262217	7.6125248
H	3.0707447	-3.1936090	7.8704730
H	4.1007997	-1.8255997	7.3485371
H	2.7587725	-1.5796818	8.5074529
C	6.4243487	-4.9153825	2.9564416
H	5.8106455	-5.4623435	3.6972418
O	5.9339053	-3.9787836	2.3159263
C	7.8410124	-5.3957588	2.8102210
H	7.8524906	-6.4541577	2.5174634
H	8.3706558	-4.8021886	2.0620705
H	8.3640910	-5.3277001	3.7733254
C	-0.3649373	3.8707056	1.3751207
H	-0.4558011	4.8342049	0.8384683
O	0.6854236	3.5839752	1.9603895
C	-1.5800255	2.9873373	1.3271697
H	-1.8344422	2.7514266	0.2852171
H	-1.4023708	2.0625099	1.8800801
H	-2.4453046	3.5119584	1.7536413
C	1.9018327	0.7440730	5.9331588
H	1.0725127	1.4683145	5.8223186
O	1.8295882	-0.3675597	5.3973739
C	3.0669784	1.2170480	6.7564498
H	2.7322296	1.4788554	7.7690934
H	3.8349264	0.4426457	6.8124278
H	3.4936178	2.1289793	6.3180739
C	-1.7794931	0.1593954	4.5000861
H	-2.6529639	-0.4223496	4.1490813
O	-1.1936279	-0.1677869	5.5382219
C	-1.3922149	1.3275539	3.6372423
H	-2.2324183	2.0297020	3.5530214
H	-0.5248270	1.8416587	4.0566600
H	-1.1620176	0.9853407	2.6195426
C	4.2679205	-6.3569257	-0.0072248
H	3.6134996	-6.8725292	-0.7355581
O	3.8163377	-5.4450075	0.6945517
C	5.6879889	-6.8465628	0.0451144
H	6.1601485	-6.7415916	-0.9408335
H	6.2589980	-6.2846546	0.7872630
H	5.7097870	-7.9157027	0.2946698
C	1.0070258	-3.0151622	5.7924990
H	1.5239091	-2.1333127	6.2164754
O	1.5492628	-3.6843761	4.9058515
C	-0.3500366	-3.3075322	6.3686755
H	-1.0151968	-2.4456959	6.2242908
H	-0.7845964	-4.1901085	5.8945514
H	-0.2732024	-3.4705324	7.4518841
C	3.9215481	-5.3453337	2.1173605
H	3.2491243	-5.2830898	2.9940331
O	4.5680522	-4.3539914	1.7605904
C	3.9716468	-6.6837245	1.4352474
H	2.9687584	-6.9699651	1.0912589
H	4.6567180	-6.6542217	0.5853157
H	4.2961360	-7.4569367	2.1442347
C	3.2005113	-3.7818742	5.8014719
H	3.6482226	-2.8231242	6.1254098
O	3.2712397	-4.1301774	4.6175401
C	2.5312359	-4.5809614	6.8843423
H	1.7279945	-3.9918309	7.3467008
H	2.1196331	-5.5069395	6.4772497
H	3.2506736	-4.8152931	7.6801508
C	3.7192961	-4.6258217	5.2448649
H	3.2368480	-5.4423960	4.6747480
O	3.4457306	-3.4473163	4.9912926
C	4.6908953	-5.0641321	6.3045615
H	5.4959670	-5.6607534	5.8551736
H	5.1170123	-4.1975598	6.8145160
H	4.1867762	-5.7110895	7.0347144
C	-5.8675824	-1.6119536	0.4990089
H	-6.4268936	-0.8858186	-0.1210571
O	-6.3108744	-2.7533962	0.6681636
C	-4.5811527	-1.1035993	1.0870165
H	-4.7751760	-0.2256853	1.7176262
H	-4.0980896	-1.8825118	1.6807523
H	-3.9039509	-0.7757820	0.2871749
C	6.5707434	-3.7268464	4.4279336
H	6.3095621	-4.7491493	4.0943712
O	6.0625225	-2.7454887	3.8741640
C	7.5536642	-3.6487151	5.5623235
H	8.4928016	-4.1447544	5.2830156
H	7.7524513	-2.6075021	5.8248798
H	7.1620437	-4.1820774	6.4386634
C	1.5219064	2.3148338	-4.2265396
H	0.5426777	2.6972941	-3.8809701
O	1.8880482	1.1764094	-3.9135824
C	2.3248772	3.2642176	-5.0709248
H	2.5204787	4.1909289	-4.5150534
H	3.2714114	2.8064248	-5.3660108
H	1.7560638	3.5461996	-5.9668884
C	3.8762675	-3.1364295	-2.4745111
H	4.5095276	-2.2289392	-2.4694331
O	3.1458683	-3.3878461	-1.5094623
C	3.9833095	-3.9921065	-3.7055419
H	5.0207257	-4.3240762	-3.8455802
H	3.3273858	-4.8615066	-3.6250162
H	3.7145633	-3.4081503	-4.5958137
C	6.0737987	-5.1838591	1.1487874
H	5.7331516	-6.0276411	1.7785287
O	5.3923271	-4.1556486	1.0688401
C	7.3793906	-5.3962600	0.4350688
H	7.3141677	-6.2774017	-0.2171443
H	7.6372436	-4.5175110	-0.1598167
H	8.1781637	-5.5978664	1.1611058
C	0.2346361	-3.2808565	-3.9487874
H	-0.8027317	-3.0846984	-3.6171656
O	1.1362219	-2.4830255	-3.6683933
C	0.4334807	-4.5470568	-4.7338198
H	-0.1944857	-4.5353309	-5.6346902
H	1.4817357	-4.6597245	-5.0185021
H	0.1174268	-5.4139694	-4.1385165
C	0.7699537	-0.8647425	-4.5704379
H	0.8621700	-1.9116782	-4.2240207
O	1.1438023	0.0633953	-3.8446212
C	0.1762355	-0.6872000	-5.9397645
H	-0.8296397	-1.1265385	-5.9750317
H	0.1233404	0.3722997	-6.1990697
H	0.7810437	-1.2199908	-6.6855220
C	0.8754557	1.8072086	3.7085327
H	0.2321074	0.9392735	3.9480627
O	1.7148557	1.7257349	2.8047729
C	0.6431856	3.0340497	4.5451866
H	0.7997591	2.8020633	5.6071254
H	1.3179444	3.8372161	4.2415403
H	-0.3978350	3.3685059	4.4440510
C	3.5384531	0.6647614	6.2127731
H	2.7548895	-0.1027551	6.3595016
O	4.2249232	0.6609338	5.1847865
C	3.6817190	1.6630980	7.3271685
H	3.9104922	1.1471293	8.2692332
H	4.4738647	2.3794203	7.0992119
H	2.7342890	2.1967539	7.4801422
C	0.4089881	-3.7156146	5.6984406
H	0.1769500	-4.5687813	5.0329725
O	1.2856263	-2.9035258	5.3821663
C	-0.4029368	-3.6416524	6.9611304
H	-0.2652410	-4.5566023	7.5526991
H	-0.1088930	-2.7732256	7.5543840
H	-1.4722183	-3.5785876	6.7193182
C	5.9182767	-2.4908225	5.4150428
H	5.0155691	-2.8691298	5.9313619
O	5.8386908	-2.0714207	4.2549650
C	7.1877382	-2.5332855	6.2186239
H	7.4039770	-3.5643588	6.5287458
H	8.0234564	-2.1428622	5.6340544
H	7.0727276	-1.9434712	7.1377020
C	-5.2895179	1.8196174	0.7831762
H	-5.0399583	2.8489198	1.1038621
O	-6.1037616	1.6347539	-0.1283307
C	-4.5794404	0.7218270	1.5246101
H	-4.8017552	0.7861384	2.5981496
H	-4.8843164	-0.2554909	1.1445087
H	-3.4924875	0.8364043	1.4186911
