374
Analysis from 50 .xyz files
C	0.0000000	0.0000000	0.0000000
O	-1.2238486	0.0000000	0.0000000
O	0.6910673	1.2023312	0.0000000
H	1.6618159	1.0855056	0.0467956
N	0.4154201	-2.3123118	0.8346036
C	0.9921328	-1.0361103	2.8092565
H	1.3139205	-0.1586955	2.2637341
H	1.0504513	-0.9737884	3.8878083
C	0.4970152	-2.1505321	2.2199348
C	0.0134224	-3.3188343	3.0504518
H	0.6063987	-4.2242473	2.8674725
H	0.0893579	-3.0774751	4.1123820
H	-1.0341315	-3.5606718	2.8327303
C	0.5538495	-3.4265557	-1.2302043
C	-0.1598454	-3.4727207	0.1305548
C	0.8617467	-1.2746575	-0.0870409
C	0.6987555	-1.9138386	-1.5034602
H	1.5391601	-3.8999861	-1.1495863
H	-0.0075789	-3.9368180	-2.0183830
H	0.0412984	-4.4000311	0.6715376
H	-1.2492490	-3.3734894	0.0102253
H	1.9139682	-1.0211523	0.1249904
H	-0.2148017	-1.5302177	-1.9695465
H	1.5419772	-1.6741202	-2.1568946
C	4.6528044	0.9043291	-2.0982186
H	4.8088028	1.9508562	-1.7741380
O	3.8494744	0.1825362	-1.4968136
C	5.4701575	0.4655005	-3.2807758
H	6.5405802	0.5775118	-3.0623830
H	5.2533672	-0.5753337	-3.5302614
H	5.2548327	1.1052472	-4.1469010
C	2.6143112	3.7907353	0.8618575
H	2.3901046	4.1289910	1.8913707
O	3.5715918	3.0374342	0.6517066
C	1.6899281	4.3086948	-0.2041218
H	1.7056988	5.4067118	-0.2166429
H	1.9838048	3.9261596	-1.1838565
H	0.6563060	4.0091092	0.0142526
C	3.9997304	1.9761226	-2.3604072
H	4.8461672	2.4184922	-1.8014469
O	3.5376050	0.8810602	-2.0208624
C	3.4904437	2.7929319	-3.5147589
H	4.2972648	2.9669679	-4.2391884
H	2.6592310	2.2831700	-4.0064957
H	3.1620127	3.7799749	-3.1630597
C	2.4301510	4.2096931	-0.9709300
H	1.3911770	3.9572295	-1.2561983
O	3.0288537	3.5205063	-0.1375101
C	3.0153736	5.4109391	-1.6591165
H	2.4020315	6.2988471	-1.4554556
H	4.0383723	5.5856118	-1.3192052
H	3.0080515	5.2635525	-2.7472511
C	4.7901109	1.8287053	0.2535074
H	4.5994389	1.9614069	1.3354581
O	4.4226761	0.7963060	-0.3184677
C	5.5031339	2.9668471	-0.4212589
H	6.4764558	3.1393642	0.0572064
H	5.6485216	2.7517330	-1.4819969
H	4.9257883	3.8940742	-0.3084076
C	3.7338844	3.1845400	2.6220267
H	3.8077981	2.7686887	3.6448597
O	3.4983142	2.4382680	1.6651584
C	3.9371130	4.6696999	2.5121360
H	4.9271319	4.9450064	2.8995840
H	3.8471227	4.9919810	1.4726105
H	3.1975648	5.1985800	3.1279020
C	4.9837080	1.1142063	-1.0606868
H	4.6465743	0.4591172	-1.8863878
O	4.4607272	1.0231402	0.0556510
C	6.0836553	2.0777174	-1.4083077
H	5.7651337	2.7342269	-2.2290306
H	6.3522724	2.6811618	-0.5386661
H	6.9663936	1.5303941	-1.7647117
C	-1.9457601	2.5334215	-2.3122487
H	-1.4404873	2.9310620	-1.4116021
O	-1.3584022	2.5259159	-3.3998913
C	-3.3450425	2.0282416	-2.0980524
H	-3.9802336	2.8320233	-1.7024338
H	-3.7647822	1.6561910	-3.0350548
H	-3.3461246	1.2256041	-1.3486624
C	0.9354149	3.4503880	-2.4774456
H	0.1656510	3.7183406	-1.7289484
O	1.9375873	2.8129843	-2.1348393
C	0.6602501	3.9122983	-3.8810129
H	0.5560249	5.0052752	-3.9052091
H	1.4674567	3.6056376	-4.5495587
H	-0.2915468	3.4952945	-4.2359829
C	-3.4653255	-1.3046558	-3.9178703
H	-4.2177069	-1.1896248	-4.7211592
O	-2.3559639	-1.7869548	-4.1722646
C	-3.8990021	-0.8416182	-2.5552996
H	-4.7947184	-1.3915566	-2.2370126
H	-3.0984160	-0.9915170	-1.8278595
H	-4.1743063	0.2209184	-2.5875038
C	1.9842401	4.7182309	0.6250038
H	1.3437994	4.7392296	1.5272109
O	2.6173034	3.6960254	0.3380564
C	2.0100092	5.9880372	-0.1787413
H	2.3603370	6.8220148	0.4439934
H	2.6637934	5.8779944	-1.0465165
H	0.9955075	6.2451470	-0.5111478
C	-3.7218008	1.2220968	-1.0868516
H	-4.0752481	1.0116370	-0.0595423
O	-3.9239477	0.4043140	-1.9914953
C	-3.0077977	2.5321249	-1.2687962
H	-2.1291227	2.5776912	-0.6116045
H	-2.6958231	2.6563725	-2.3079358
H	-3.6640487	3.3633191	-0.9785133
C	4.4768775	-0.9549666	2.8046312
H	5.0858475	-0.5502513	3.6352598
O	4.0882414	-0.2077404	1.8998509
C	4.1817125	-2.4269222	2.8774498
H	3.6485917	-2.6594741	3.8089801
H	3.5789323	-2.7387296	2.0218746
H	5.1185894	-2.9993613	2.8971609
C	-2.9415961	3.4613268	2.0472086
H	-2.1023301	3.0015928	2.6029605
O	-3.7519337	4.1856053	2.6360936
C	-2.9997988	3.1374344	0.5806534
H	-3.0763254	2.0514172	0.4365805
H	-3.8549173	3.6308186	0.1138331
H	-2.0733376	3.4581852	0.0860807
C	-3.2451243	-0.3706240	2.5010630
H	-3.7601973	-1.0978646	1.8450112
O	-2.4511039	-0.7664639	3.3617919
C	-3.5858734	1.0729733	2.2581739
H	-4.6647228	1.2330500	2.3866514
H	-3.0346648	1.7169474	2.9466819
H	-3.3457434	1.3485528	1.2226998
C	-4.0608853	0.1209558	3.5749471
H	-4.4693520	-0.7627321	3.0487974
O	-4.6372583	0.5696786	4.5721702
C	-2.8008573	0.6954795	2.9907123
H	-2.9700484	0.9932412	1.9472761
H	-2.4703849	1.5600909	3.5702048
H	-2.0091244	-0.0653286	2.9787245
C	0.5351474	1.8047051	-3.7933048
H	1.1717049	2.7098997	-3.7937635
O	0.7390907	0.9040866	-2.9715350
C	-0.5475819	1.7757141	-4.8353868
H	-0.1084339	1.8585481	-5.8385491
H	-1.1239487	0.8510406	-4.7621948
H	-1.2157125	2.6380578	-4.7097755
C	-0.6123440	2.4099409	-3.2814283
H	-0.6288482	2.6903639	-4.3517897
O	-0.3983129	1.2381792	-2.9510083
C	-0.8625557	3.5336961	-2.3151746
H	-1.8418384	3.9900361	-2.5121674
H	-0.8280684	3.1683062	-1.2866429
H	-0.1117778	4.3233108	-2.4517570
C	-2.1438271	4.1358184	-1.0037480
H	-1.7168248	3.9444271	-2.0065547
O	-1.7097041	5.0638445	-0.3121434
C	-3.2473582	3.2060641	-0.5832077
H	-2.8883496	2.1682054	-0.5862486
H	-3.6077343	3.4669062	0.4141223
H	-4.0773284	3.2563598	-1.3004476
C	-3.0637758	-0.5490826	4.2097845
H	-1.9944861	-0.8071156	4.3307036
O	-3.7154366	-0.1386903	5.1767015
C	-3.6210523	-0.7357998	2.8264343
H	-3.5056836	-1.7813333	2.5108450
H	-4.6769439	-0.4584603	2.7990046
H	-3.0599352	-0.1240710	2.1075820
C	-4.2844429	-3.7216621	-1.6629359
H	-4.8098570	-3.6485194	-0.6917650
O	-3.2089815	-4.3259679	-1.7417347
C	-4.9688878	-3.0495815	-2.8200534
H	-5.1053370	-1.9805501	-2.6088652
H	-4.3833320	-3.1714360	-3.7337560
H	-5.9710914	-3.4744832	-2.9644831
C	-0.1194611	5.5274373	0.0735543
H	-0.2555961	5.6425902	1.1657035
O	0.7242443	6.2077021	-0.5209313
C	-1.0137540	4.5152628	-0.5858554
H	-2.0672507	4.7771837	-0.4197561
H	-0.8119454	4.4677944	-1.6580479
H	-0.8588060	3.5251922	-0.1368958
C	-2.2555260	3.2693615	-2.9260132
H	-3.2411954	3.7201861	-2.7028634
O	-2.0081963	2.8516247	-4.0628228
C	-1.2934767	3.2158251	-1.7724652
H	-1.7288891	2.6412102	-0.9440447
H	-0.3513121	2.7581296	-2.0813623
H	-1.1045414	4.2280849	-1.3910900
C	-4.5592923	-3.6582347	2.7826205
H	-4.9141812	-3.9244938	3.7963970
O	-3.6611472	-4.3176665	2.2473661
C	-5.2394854	-2.4768850	2.1495105
H	-5.1115784	-1.5857765	2.7784878
H	-4.8288443	-2.2867048	1.1556382
H	-6.3197350	-2.6589864	2.0739247
C	-2.5941079	-1.5653049	-3.7042285
H	-3.2928559	-1.1884845	-2.9332938
O	-2.1399410	-2.7120072	-3.6216549
C	-2.2658792	-0.5981178	-4.8069041
H	-1.8203298	0.3143277	-4.3886031
H	-1.5734766	-1.0513737	-5.5194449
H	-3.1835558	-0.2929370	-5.3270460
C	-1.9648281	-3.0731823	-5.1133254
H	-2.7428006	-3.8309340	-4.9008306
O	-0.8593364	-3.1495264	-4.5655373
C	-2.3604686	-1.9954635	-6.0834123
H	-3.2406117	-1.4554567	-5.7095303
H	-1.5363348	-1.2948501	-6.2334824
H	-2.6467508	-2.4401960	-7.0457370
C	4.3983208	-3.2858270	0.9849176
H	3.5435465	-3.6205364	1.6029090
O	4.4473661	-2.1210685	0.5738893
C	5.4425211	-4.3304323	0.7064869
H	4.9903883	-5.1882398	0.1909394
H	6.2449680	-3.9149069	0.0933032
H	5.8574874	-4.7102632	1.6495376
C	-1.5548124	-7.8221003	-0.0388019
H	-2.2068511	-7.7832039	0.8544592
O	-0.8699907	-6.8409903	-0.3493736
C	-1.5797180	-9.1172857	-0.8010042
H	-2.6011416	-9.3365160	-1.1396471
H	-0.9102909	-9.0669009	-1.6623435
H	-1.2779690	-9.9461440	-0.1469746
C	-0.8471059	-7.6455530	1.8378582
H	-1.3084183	-7.3106619	2.7863420
O	0.1745534	-7.0919501	1.4162561
C	-1.5462715	-8.7814510	1.1450515
H	-2.5837116	-8.5030575	0.9164428
H	-1.0251549	-9.0452622	0.2223285
H	-1.5915020	-9.6567227	1.8066156
C	-0.7683928	-7.5713743	2.7818242
H	-1.6082254	-8.0632355	3.3084518
O	-0.9878638	-6.6391822	2.0002472
C	0.5971667	-8.1174815	3.0918122
H	0.6425864	-9.1856209	2.8406910
H	1.3618578	-7.5757411	2.5311504
H	0.8011145	-8.0359698	4.1677185
C	-4.1032286	-2.4253423	-2.4109651
H	-3.5956149	-1.5362798	-2.8310592
O	-3.4961077	-3.1807986	-1.6436960
C	-5.5306096	-2.6176361	-2.8407147
H	-5.5875485	-2.7025107	-3.9341502
H	-5.9508917	-3.5143966	-2.3805406
H	-6.1308900	-1.7423082	-2.5591513
C	-2.5832553	-6.8851740	1.6874196
H	-2.8546502	-6.1971276	2.5105355
O	-1.7549542	-6.5387321	0.8377682
C	-3.2829206	-8.2153575	1.7000035
H	-4.3704374	-8.0704222	1.6515477
H	-2.9561851	-8.8271564	0.8564855
H	-3.0750928	-8.7424123	2.6406598
C	3.5476350	1.5500441	-3.2484852
H	3.1391681	0.6663562	-3.7746348
O	2.9712620	1.9987669	-2.2512620
C	4.8076629	2.1245676	-3.8327201
H	4.6384718	2.4223295	-4.8761562
H	5.1381355	2.9891790	-3.2532275
H	5.5993956	1.3637595	-3.8447079
C	-2.8482701	-6.5588185	0.1143405
H	-3.3029409	-6.3617100	1.1037876
O	-1.6193402	-6.5407889	-0.0176377
C	-3.8190142	-6.8368248	-0.9989638
H	-4.5035356	-5.9872108	-1.1239974
H	-3.2858528	-7.0194072	-1.9343672
H	-4.4384226	-7.7089388	-0.7508437
C	1.8208271	-7.3499145	0.2286105
H	2.2896556	-6.6619048	-0.5003787
O	1.1905636	-6.8975329	1.1909674
C	2.0136603	-8.8144721	-0.0488148
H	3.0846553	-9.0559970	-0.0749366
H	1.5200922	-9.4168109	0.7167931
H	1.6074043	-9.0682837	-1.0369185
C	4.5997769	-4.2672148	-3.4127048
H	5.5017706	-3.7463830	-3.7865022
O	4.0561823	-3.8925030	-2.3676651
C	4.1219448	-5.4168328	-4.2548052
H	4.9136921	-6.1723171	-4.3466012
H	3.2316698	-5.8698603	-3.8134967
H	3.8945524	-5.0709453	-5.2718931
C	-1.8364291	-7.5146237	-1.8797066
H	-2.4577659	-7.7338011	-2.7687987
O	-1.2863842	-6.4136630	-1.7641716
C	-1.7300535	-8.6278291	-0.8754477
H	-1.3077898	-9.5243032	-1.3488127
H	-1.1014507	-8.3257951	-0.0350843
H	-2.7281894	-8.9029766	-0.5096171
C	2.0694726	-3.9286724	-5.4181184
H	1.4578189	-3.8680145	-6.3383267
O	1.5631701	-3.6740920	-4.3195472
C	3.5036114	-4.3301927	-5.6208632
H	4.0035212	-3.6190952	-6.2920394
H	4.0298539	-4.3644633	-4.6645834
H	3.5553136	-5.3139015	-6.1061024
C	-3.3023929	1.2617236	-4.2175391
H	-3.0597506	2.3255845	-4.0333993
O	-3.6154421	0.8849382	-5.3524599
C	-3.2192840	0.3627143	-3.0158929
H	-3.9020396	0.7163946	-2.2317999
H	-3.4733502	-0.6638716	-3.2881949
H	-2.2069360	0.3922721	-2.5915213
C	-0.4354391	5.6656522	-1.3626741
H	-1.1501343	6.0457839	-0.6081586
O	-0.5949537	5.9351690	-2.5584700
C	0.6920624	4.8316294	-0.8220962
H	0.2936168	3.9581082	-0.2889465
H	1.3452973	4.5006915	-1.6322451
H	1.2734798	5.4103332	-0.0921176
C	1.3808020	-7.7251599	-2.3997779
H	2.2639770	-8.3434610	-2.1502009
O	1.3234519	-6.5477471	-2.0277262
C	0.3103669	-8.4187352	-3.1948880
H	-0.0572322	-9.2970255	-2.6476003
H	-0.5191837	-7.7373215	-3.3951321
H	0.7232148	-8.7865092	-4.1436305
C	-3.8795009	0.8075232	1.0465541
H	-3.9889450	-0.0893036	0.4075655
O	-3.5394573	0.6882276	2.2289884
C	-4.1692955	2.1197539	0.3733914
H	-5.1964652	2.1260853	-0.0151046
H	-4.0368987	2.9465114	1.0744762
H	-3.5034950	2.2568645	-0.4890027
C	5.5110062	-1.4979847	0.8342555
H	5.5852639	-0.4256703	0.5711759
O	4.4260338	-2.0838285	0.7468829
C	6.7915064	-2.1426799	1.2856594
H	7.1853762	-1.6222278	2.1688598
H	6.6262736	-3.1956536	1.5234019
H	7.5546240	-2.0568237	0.5007431
C	-4.2220762	-1.3351338	1.9389742
H	-4.1322864	-0.2519752	1.7309163
O	-3.2151365	-2.0521279	1.9369790
C	-5.6159174	-1.8274660	2.2108089
H	-6.2669292	-1.6104629	1.3534058
H	-5.6106898	-2.9020948	2.4050316
H	-6.0416241	-1.2984561	3.0737895
C	-2.2735143	-2.3938119	6.9684894
H	-3.1742771	-2.9497665	6.6458070
O	-1.1527556	-2.7615711	6.5988069
C	-2.5295796	-1.2075649	7.8552401
H	-3.0549686	-1.5236499	8.7663402
H	-1.5895205	-0.7209422	8.1236878
H	-3.1845910	-0.4890319	7.3448641
C	-4.1212094	-3.2606418	4.3219216
H	-4.1657978	-2.2149721	4.6813233
O	-3.1541346	-3.9744318	4.6105088
C	-5.2905214	-3.7085083	3.4905354
H	-5.3904590	-3.0684885	2.6037242
H	-5.1634542	-4.7479286	3.1806384
H	-6.2221521	-3.6051216	4.0625397
C	0.1488603	-6.7538978	4.8351632
H	0.5369243	-5.9737980	5.5173899
O	0.6403353	-6.8930627	3.7095088
C	-0.9770512	-7.5870919	5.3803135
H	-1.8262519	-6.9447417	5.6491843
H	-1.2957939	-8.3278151	4.6438971
H	-0.6597387	-8.0946710	6.3009053
C	-1.1315418	2.5434897	-4.1924118
H	-1.2970973	1.6145405	-4.7705359
O	-1.4561980	3.6365893	-4.6696367
C	-0.5053077	2.3590039	-2.8385750
H	0.4703988	1.8648912	-2.9380553
H	-0.3795911	3.3229297	-2.3409617
H	-1.1311532	1.7027577	-2.2193241
C	-4.8046510	-5.7205680	0.9183350
H	-5.8061578	-6.1759703	1.0373978
O	-4.0242440	-6.1544100	0.0634912
C	-4.4984671	-4.5806318	1.8488591
H	-4.5775257	-4.9134271	2.8924318
H	-3.4944934	-4.1937209	1.6620074
H	-5.2345330	-3.7766564	1.7160285
C	0.8346242	3.2994644	6.1148816
H	-0.2233925	3.5297818	5.8865452
O	1.6845679	4.1965184	6.0848504
C	1.1257246	1.8631454	6.4485376
H	0.8290312	1.2140182	5.6138797
H	2.1886376	1.7274672	6.6592124
H	0.5340057	1.5503337	7.3190725
