374
Analysis from 50 .xyz files
C	0.0000000	0.0000000	0.0000000
O	-1.2276683	0.0000000	0.0000000
O	0.7281637	1.1653097	0.0000000
H	1.6891404	0.9383504	-0.0527999
N	2.2374214	-1.0721102	-0.3624773
C	3.8789555	-0.9406778	-2.1453542
H	4.7241375	-1.0194778	-1.4734496
H	4.1074421	-0.8272591	-3.1973226
C	2.5931839	-0.9425184	-1.7309908
C	1.4549991	-0.7646518	-2.7128376
H	0.8869995	0.1532674	-2.5203703
H	1.8525496	-0.7001681	-3.7275548
H	0.7473537	-1.6019484	-2.6832741
C	2.3493079	-2.4253989	1.6128101
C	3.2143387	-1.6523889	0.5996822
C	0.8410066	-1.2749103	0.0896937
C	0.9956194	-1.6931648	1.5790409
H	2.2251722	-3.4638868	1.2834846
H	2.7910833	-2.4429670	2.6132990
H	3.9088534	-2.3107599	0.0664739
H	3.8052783	-0.8621001	1.0808519
H	0.3197161	-2.0566768	-0.4748055
H	1.0306241	-0.7982142	2.2121883
H	0.1530012	-2.3044029	1.9090045
C	-2.6532916	-3.8380596	0.3169499
H	-3.2297276	-4.3028134	-0.5054299
O	-1.4433312	-4.0641355	0.4305167
C	-3.4423539	-2.9496358	1.2373638
H	-4.2607825	-3.5171666	1.7001060
H	-2.7971620	-2.5356007	2.0151036
H	-3.9054653	-2.1326220	0.6683033
C	-3.3802964	-2.7921035	1.2179470
H	-3.9685284	-2.8574002	2.1529885
O	-2.3797762	-3.5016049	1.0643919
C	-3.8883421	-1.8073532	0.2024499
H	-3.9154575	-0.7984977	0.6354882
H	-3.2507771	-1.8092392	-0.6841639
H	-4.9187173	-2.0573206	-0.0833064
C	4.0267246	2.7836640	1.9299585
H	3.0890878	3.3223023	2.1650943
O	4.0636549	1.9870682	0.9854569
C	5.1935576	3.0971615	2.8239934
H	4.9428984	2.8643159	3.8675449
H	6.0722608	2.5239566	2.5208540
H	5.4215372	4.1706154	2.7848089
C	-2.0057653	3.8881657	-2.0492113
H	-0.9071488	3.8264231	-1.9316851
O	-2.4933024	4.3225542	-3.0987952
C	-2.8092417	3.4169401	-0.8696139
H	-2.5486975	4.0018411	0.0226049
H	-3.8780424	3.5128497	-1.0722054
H	-2.5689770	2.3696399	-0.6432321
C	-1.2628945	3.2253691	2.7906204
H	-0.4153446	3.8016859	2.3733663
O	-1.2144817	2.8051447	3.9521193
C	-2.4213999	3.0125506	1.8569976
H	-2.0869072	2.4833401	0.9547238
H	-3.2084728	2.4374652	2.3493084
H	-2.8226707	3.9798242	1.5265788
C	4.0298294	2.2742086	3.0318063
H	5.1355634	2.2983597	2.9950386
O	3.4300322	1.1973888	2.9384539
C	3.3595761	3.6092266	3.1978349
H	3.6385641	4.2770965	2.3719037
H	2.2742113	3.4914459	3.2240626
H	3.7011110	4.0906319	4.1238025
C	-1.7060928	3.5617334	-2.0014048
H	-1.5282803	2.5409246	-2.3898826
O	-1.6602311	4.5323221	-2.7655164
C	-1.9944356	3.6515951	-0.5290389
H	-1.1586767	3.2306837	0.0457546
H	-2.1565421	4.6904487	-0.2339430
H	-2.8820631	3.0545991	-0.2809938
C	3.1065414	1.4941212	4.1657500
H	3.6060054	1.0382820	5.0417233
O	3.3783612	1.1038437	3.0247813
C	2.1151472	2.5793621	4.4795459
H	2.6075862	3.3936306	5.0277405
H	1.6727599	2.9703259	3.5608416
H	1.3237466	2.1901596	5.1337780
C	3.7694695	3.2690569	-0.4070923
H	3.2211966	3.2680296	-1.3683304
O	4.1781911	2.2064366	0.0743606
C	3.9605645	4.6186476	0.2262842
H	2.9861699	5.0898329	0.4122591
H	4.5087177	4.5256631	1.1662090
H	4.5081699	5.2819661	-0.4563211
C	1.2859890	1.9939038	4.3519301
H	0.6952557	2.3848810	5.2020795
O	1.8915879	0.9216367	4.4591926
C	1.2822636	2.8483237	3.1153902
H	1.6745913	3.8478199	3.3458965
H	1.8872067	2.3884101	2.3311070
H	0.2542016	2.9867707	2.7552035
C	-4.2468270	1.1199949	2.9541432
H	-4.7002014	0.2000969	2.5384243
O	-4.1353235	1.2576861	4.1775074
C	-3.8014578	2.1360275	1.9400414
H	-4.6524790	2.4494497	1.3207062
H	-3.3681784	3.0069696	2.4363333
H	-3.0616122	1.6922348	1.2607108
C	-3.9245158	0.3491918	-2.6762854
H	-3.8916983	-0.6991741	-2.3235324
O	-3.6811189	0.6129489	-3.8591642
C	-4.2758090	1.3715585	-1.6320452
H	-3.5516378	1.3331177	-0.8073360
H	-4.2850773	2.3736385	-2.0660109
H	-5.2601495	1.1472438	-1.2001076
C	-3.8412230	-0.9905154	1.9119805
H	-3.8153693	-0.5896261	0.8808636
O	-3.2708442	-2.0545030	2.1777073
C	-4.5983992	-0.1594421	2.9095171
H	-5.6409158	-0.0383277	2.5861944
H	-4.5719711	-0.6277229	3.8957176
H	-4.1655637	0.8480775	2.9675772
C	-0.4327818	2.9499387	-3.0189858
H	-0.2352933	3.2258790	-1.9656871
O	0.5020504	2.6285637	-3.7611575
C	-1.8745366	3.0005304	-3.4407223
H	-2.2757150	4.0121785	-3.2935108
H	-1.9762720	2.7143410	-4.4896848
H	-2.4749527	2.3273302	-2.8145314
C	0.9047712	4.4890274	-0.8514574
H	0.5312276	5.0700241	-1.7160329
O	2.0579060	4.0437476	-0.8556929
C	-0.0748191	4.3019413	0.2730336
H	-0.9755385	3.7905870	-0.0920255
H	0.3759436	3.7202703	1.0799095
H	-0.3986477	5.2780271	0.6580076
C	-0.1515937	-5.0852965	-2.6207412
H	0.0249016	-4.4990158	-3.5425368
O	0.2167584	-4.6447997	-1.5260762
C	-0.8474111	-6.4030994	-2.8164751
H	-0.2651408	-7.0403453	-3.4953903
H	-0.9797576	-6.9114415	-1.8590570
H	-1.8258637	-6.2468095	-3.2897797
C	-3.3058336	4.2753923	-1.1032392
H	-2.6867834	4.3946705	-2.0127075
O	-4.4617838	4.7126419	-1.0786607
C	-2.6404591	3.5662199	0.0428102
H	-1.7306562	4.1034841	0.3422309
H	-3.3206821	3.4933860	0.8940263
H	-2.3271116	2.5602383	-0.2664268
C	-0.6788787	-4.8548803	-1.6273871
H	-1.4273571	-4.1138253	-1.2879753
O	0.5116482	-4.7163760	-1.3249397
C	-1.2205849	-5.9898442	-2.4504844
H	-1.7173582	-5.6008760	-3.3493543
H	-0.4165441	-6.6695432	-2.7404922
H	-1.9814118	-6.5398322	-1.8808625
C	-2.0836348	-3.5752995	-1.8730392
H	-2.7745561	-2.8824400	-1.3561674
O	-1.2657857	-4.2351447	-1.2220867
C	-2.2269816	-3.6349232	-3.3680224
H	-2.0672985	-2.6391086	-3.8026505
H	-1.5097120	-4.3402506	-3.7930095
H	-3.2472520	-3.9384662	-3.6376951
C	-3.3576999	3.8678913	-1.3988120
H	-4.4393897	3.7981992	-1.1759377
O	-2.9773864	4.2660870	-2.5055252
C	-2.4400872	3.4528576	-0.2831004
H	-2.6419624	2.4123955	0.0045312
H	-1.3965711	3.5532802	-0.5889862
H	-2.6248459	4.0691566	0.6067609
C	-2.2125120	4.3434887	1.7797298
H	-2.0788686	5.2140618	1.1097860
O	-2.2257740	4.5012036	3.0056835
C	-2.3686650	3.0164927	1.0914160
H	-1.4891212	2.8090186	0.4673934
H	-2.4947643	2.2176755	1.8252870
H	-3.2361567	3.0399171	0.4185694
C	7.5902864	0.1710872	1.0725575
H	7.5595411	1.0314851	1.7677935
O	6.5415608	-0.3857864	0.7289321
C	8.9607170	-0.2360669	0.6086355
H	9.5889320	-0.4975550	1.4706197
H	8.8966773	-1.0884936	-0.0709558
H	9.4527592	0.6043465	0.1012764
C	-4.6539377	0.7853259	2.9709533
H	-3.9874508	1.3030973	3.6866983
O	-5.4211382	-0.0992504	3.3671101
C	-4.5432113	1.2374648	1.5418319
H	-3.5153519	1.0992632	1.1806501
H	-5.2334051	0.6759536	0.9086539
H	-4.7637154	2.3105982	1.4671585
C	-2.6824103	-2.6462981	3.6118971
H	-3.1778634	-2.7242409	2.6254722
O	-1.6356233	-3.2664004	3.8303515
C	-3.3692657	-1.7586248	4.6115689
H	-4.3918306	-2.1154295	4.7934980
H	-2.8140579	-1.7405656	5.5517789
H	-3.4555771	-0.7385921	4.2142062
C	0.0283787	-2.1899635	5.5287548
H	0.5373122	-2.1234943	6.5091380
O	0.5155617	-2.8754839	4.6228151
C	-1.2485302	-1.4061993	5.4091907
H	-1.0574313	-0.3417008	5.5999030
H	-1.6806824	-1.5289961	4.4138304
H	-1.9687577	-1.7397547	6.1680231
C	-2.5953923	4.5701116	0.8523802
H	-2.6521986	5.0433048	-0.1463410
O	-3.4088660	4.8774204	1.7309209
C	-1.4897119	3.5676934	1.0304449
H	-0.5167300	4.0417019	0.8442490
H	-1.5087021	3.1529709	2.0405049
H	-1.5929813	2.7573046	0.2966748
C	-2.6612773	-3.3053674	1.3729466
H	-2.8943108	-2.2769164	1.7084565
O	-1.9216858	-3.4869645	0.3992737
C	-3.2980437	-4.4061996	2.1740552
H	-4.3912073	-4.3027441	2.1556992
H	-3.0149579	-5.3824409	1.7748160
H	-2.9905635	-4.3342249	3.2257629
C	7.6916240	-1.1729917	1.0054238
H	7.8740511	-2.2570823	1.1321154
O	6.5710047	-0.7673140	0.6773230
C	8.8773418	-0.2844544	1.2577191
H	9.7005031	-0.5523590	0.5819383
H	8.6078952	0.7635553	1.1105761
H	9.2474225	-0.4302384	2.2812427
C	7.4276949	-3.2433170	-0.1028032
H	6.9010038	-4.2163768	-0.0845247
O	6.7892197	-2.1908379	0.0096655
C	8.9195546	-3.3191663	-0.2691750
H	9.1692706	-3.8367226	-1.2050299
H	9.3548440	-2.3176419	-0.2761401
H	9.3609343	-3.9078235	0.5459815
C	6.8551961	-1.2421580	2.5797005
H	6.6549382	-0.1617318	2.4487084
O	5.9467790	-2.0648265	2.4184338
C	8.2670185	-1.5968701	2.9538859
H	8.5436668	-1.1029417	3.8949212
H	8.3736948	-2.6783310	3.0617716
H	8.9637754	-1.2318385	2.1876645
C	4.9493547	2.2683666	1.8654577
H	4.6640640	1.7404214	2.7952243
O	4.6613778	1.7847731	0.7649038
C	5.6840369	3.5653303	2.0583444
H	6.6080242	3.3949272	2.6269016
H	5.9247899	4.0155456	1.0929838
H	5.0728878	4.2613782	2.6481134
C	-2.8961924	3.1161063	-2.7069390
H	-3.4420206	3.5465210	-1.8458944
O	-3.5101747	2.7868694	-3.7280368
C	-1.4106382	2.9766991	-2.5259075
H	-1.1941807	2.3396238	-1.6579627
H	-0.9553127	2.5458868	-3.4201425
H	-0.9618131	3.9572923	-2.3190109
C	7.3404464	-2.3029170	1.4673299
H	7.4262611	-2.1289499	2.5568042
O	6.5295362	-1.6530116	0.7979571
C	8.2582492	-3.3527160	0.9064037
H	8.0761773	-4.3164585	1.4004656
H	8.1065363	-3.4575589	-0.1699642
H	9.3043526	-3.0861792	1.1074989
C	2.5158634	-0.8392058	-7.2981760
H	1.4094134	-0.8471766	-7.3151408
O	3.1190924	-0.8337343	-6.2192428
C	3.1826886	-0.8358199	-8.6451767
H	2.8643688	0.0429075	-9.2218549
H	4.2690318	-0.8280505	-8.5339348
H	2.8768217	-1.7199518	-9.2201284
C	3.8162296	-2.4282016	5.8941885
H	3.3662923	-3.4100939	5.6533014
O	3.8727107	-1.5441411	5.0320637
C	4.3269821	-2.2789305	7.2998657
H	5.0900564	-3.0410049	7.5072468
H	4.7519065	-1.2839927	7.4485755
H	3.5119440	-2.4432085	8.0171795
C	0.9343483	-6.4215363	-0.8253902
H	-0.1393013	-6.1806512	-0.9430073
O	1.7421951	-5.5297063	-0.5424854
C	1.2990971	-7.8649020	-1.0321069
H	1.0064897	-8.1876438	-2.0402068
H	2.3728864	-8.0109656	-0.8971299
H	0.7485121	-8.4986032	-0.3242281
C	5.8760251	-2.9650070	3.5892278
H	5.3750496	-3.9331681	3.3987791
O	5.6466301	-1.9943272	2.8590424
C	6.8155626	-2.9434131	4.7622073
H	7.6068002	-3.6927120	4.6260415
H	7.2628811	-1.9536464	4.8755417
H	6.2784541	-3.2131735	5.6812052
C	3.1750222	-1.3865957	6.3064001
H	3.5229720	-0.3459789	6.1627664
O	2.6421631	-1.9963578	5.3724497
C	3.4007169	-1.9599123	7.6773297
H	2.8928459	-1.3447839	8.4321348
H	3.0288870	-2.9854220	7.7288004
H	4.4709921	-1.9425998	7.9223293
C	-5.2574335	1.9424876	-1.8095142
H	-5.0390655	3.0231222	-1.9050516
O	-6.2694223	1.4658596	-2.3355526
C	-4.2560777	1.1484477	-1.0183976
H	-4.1752163	1.5506647	0.0002926
H	-4.5493527	0.0973740	-0.9758467
H	-3.2605508	1.2357644	-1.4734970
C	6.0123037	-4.7686338	1.2227628
H	6.1820819	-5.2032346	0.2193284
O	4.8697758	-4.4589493	1.5787649
C	7.2421911	-4.5990000	2.0699226
H	7.9667242	-3.9514504	1.5582802
H	6.9826359	-4.1660086	3.0382853
H	7.7344810	-5.5691174	2.2193755
C	2.3809885	4.6328053	-0.4719665
H	1.3289190	4.8772371	-0.7127690
O	2.7798126	3.4654837	-0.5514131
C	3.2367708	5.7975150	-0.0594547
H	2.8095623	6.2845960	0.8272763
H	4.2543077	5.4661139	0.1581889
H	3.2569790	6.5523050	-0.8567609
C	-2.3959621	3.2667442	-1.4829058
H	-2.2000940	2.5354742	-0.6757733
O	-1.4573571	3.8750539	-2.0092063
C	-3.8404082	3.4414912	-1.8598899
H	-4.4222226	3.7644749	-0.9862650
H	-3.9402654	4.1778940	-2.6600875
H	-4.2642467	2.4823784	-2.1858913
C	4.0246152	-1.3253196	-7.1562054
H	3.2393756	-1.0088500	-7.8688263
O	3.8089353	-1.2879726	-5.9396120
C	5.3147031	-1.7823397	-7.7774010
H	5.7435306	-0.9790788	-8.3913440
H	6.0286921	-2.0746456	-7.0045144
H	5.1303446	-2.6308790	-8.4495663
C	4.4065628	2.6981766	-2.2680047
H	3.8747667	2.9630832	-3.2016001
O	3.7673726	2.3632722	-1.2643678
C	5.9059387	2.7802172	-2.3329632
H	6.2170722	3.7986258	-2.6014527
H	6.3459201	2.5031329	-1.3726418
H	6.2867764	2.1148988	-3.1191740
C	-2.3601999	-4.6401121	-1.6957897
H	-3.3953416	-4.2980339	-1.5059294
O	-1.4365065	-3.8203578	-1.7487587
C	-2.1922866	-6.1230143	-1.8743511
H	-2.8053941	-6.4738817	-2.7152068
H	-1.1441597	-6.3699152	-2.0561385
H	-2.5468337	-6.6534758	-0.9806396
C	-5.9244723	1.2437013	-0.7868671
H	-6.4573567	0.2819414	-0.9119068
O	-6.3815738	2.2755862	-1.2911330
C	-4.6547181	1.1793532	0.0147945
H	-3.9485643	0.4796763	-0.4519452
H	-4.1977068	2.1685411	0.0870755
H	-4.8631260	0.7945371	1.0219172
C	1.2510154	-5.5782827	-2.8840356
H	1.9055050	-5.9382409	-2.0675453
O	0.9696734	-4.3776074	-2.9691094
C	0.7607937	-6.6357757	-3.8329661
H	0.1976467	-7.4030372	-3.2850407
H	0.1249979	-6.1935211	-4.6028696
H	1.6123353	-7.1440102	-4.3045464
C	-3.2168062	2.6803155	-3.5616319
H	-3.8888031	1.9843602	-3.0243710
O	-3.6538369	3.3729024	-4.4875583
C	-1.7924510	2.7024039	-3.0822546
H	-1.3502742	1.7006569	-3.1660977
H	-1.2037418	3.4135149	-3.6656236
H	-1.7558987	2.9769817	-2.0196708
C	6.0001295	-4.4928958	-2.4999386
H	6.8709269	-4.4663684	-3.1822811
O	6.1723573	-4.5594314	-1.2776773
C	4.6544304	-4.4428232	-3.1675196
H	4.5449617	-5.2878640	-3.8603181
H	3.8566683	-4.4733171	-2.4223872
H	4.5643855	-3.5275149	-3.7674495
C	-0.3771573	-3.3198397	-5.8386108
H	0.0738088	-4.2583189	-5.4638188
O	-0.1914864	-2.2581508	-5.2333380
C	-1.1964852	-3.4521382	-7.0917177
H	-2.0191608	-4.1618337	-6.9317671
H	-1.6009706	-2.4820512	-7.3881964
H	-0.5803774	-3.8591719	-7.9044588
