25

C        -5.29830        1.11444       -0.66655
H         -7.38501        1.14136       -0.70810
C         -6.48600        1.68944       -0.43349
H         -4.35864        1.57752       -0.38444
H         -5.24597        0.13651       -1.13526
C         -6.70391        2.97347        0.21081
C         -5.85332        4.01306        0.11873
H         -4.96425        3.91785       -0.49744
O         -7.85389        3.01293        0.97857
C         -8.97934        3.45751        0.22080
H         -9.83629        3.51858        0.89809
H         -9.22485        2.74465       -0.57325
H         -8.81179        4.45170       -0.20609
S         -6.08643        5.52487        0.94268
C         -4.52479        6.29616        0.56447
C         -4.41855        7.17416       -0.51863
C         -3.19588        7.78062       -0.81426
H         -5.28538        7.39239       -1.13754
C         -2.07674        7.51555       -0.02588
H         -3.11821        8.46234       -1.65731
C         -3.40080        6.04013        1.35660
C        -2.17875        6.64701        1.06006
H         -1.12577        7.99004       -0.25480
H         -1.30841        6.44465        1.67898
H         -3.47046        5.36878        2.20933
