7
0 1
 C                 -0.40610100    1.01805100    0.45677200
 H                 -0.78568200    1.20310300    1.47963900
 O                  0.03526600    1.95411100   -0.21924500
 C                 -0.47478500   -0.40916300   -0.00951200
 H                 -1.51329600   -0.76533800    0.01658700
 H                 -0.08123100   -0.49918700   -1.02419800
 H                  0.09904000   -1.05565500    0.66767800

