24
0 1
C   3.063886 1.087298 0.106633
O   3.950505 0.977780 -0.737759
O   2.639179 2.304019 0.567607
H   1.945084 2.140076 1.255504
N   1.414682 0.272442 1.796322
C   3.212300 0.178518 3.438202
H   3.999893 0.085160 2.701331
H   3.528618 0.228657 4.472307
C   1.901328 0.269300 3.131261
C   0.849123 0.448812 4.202742
H   0.122467 -0.372829 4.208441
H   1.320263 0.486367 5.186903
H   0.286804 1.380876 4.061263
C   -0.015562 -0.123910 -0.052716
C   -0.003134 -0.064023 1.481768
C   2.306524 -0.122435 0.678907
C   1.357463 -0.743423 -0.383493
H   -0.851914 -0.714116 -0.437288
H   -0.092160 0.886276 -0.472524
H   -0.284592 -1.038866 1.909058
H   -0.681752 0.692384 1.884588
H   3.055839 -0.852601 1.004064
H   1.702195 -0.541243 -1.400001
H   1.324882 -1.830418 -0.247858



