24
0 1
C   -0.331386 -2.379040 -0.519754
O   0.755614 -2.748411 -0.076302
O   -1.308077 -3.272214 -0.924940
H   -0.990900 -4.195759 -0.819432
N   -0.051181 0.047389 0.007087
C   0.909897 0.878075 2.063288
H   1.696654 1.430755 1.565699
H   0.879421 0.943537 3.143340
C   0.009402 0.113431 1.404051
C   -1.033034 -0.687583 2.154586
H   -0.894607 -1.767288 2.020918
H   -0.960760 -0.479403 3.224111
H   -2.050855 -0.437517 1.828844
C   -0.000552 0.874853 -2.194380
C   0.749893 0.926283 -0.853808
C   -0.799586 -0.950611 -0.753354
C   -0.541502 -0.569115 -2.251834
H   -0.827968 1.593574 -2.184052
H   0.641766 1.109268 -3.048611
H   0.777860 1.933767 -0.425373
H   1.788440 0.571692 -0.951284
H   -1.872272 -0.918150 -0.528245
H   0.216515 -1.235327 -2.679618
H   -1.450203 -0.672627 -2.849072



