24
0 1
C   3.013259 1.071377 0.239324
O   4.192503 1.120648 -0.119927
O   2.186350 2.174350 0.193310
H   2.691048 2.959017 -0.114465
N   1.419120 0.012611 1.853723
C   3.253353 0.349439 3.399428
H   4.024405 0.287753 2.641921
H   3.588421 0.512802 4.415647
C   1.929031 0.244411 3.133932
C   0.897302 0.371943 4.233308
H   0.253271 -0.514536 4.292075
H   1.392349 0.495024 5.198625
H   0.244675 1.240185 4.076544
C   -0.024365 -0.109525 -0.030502
C   -0.015258 -0.052631 1.510200
C   2.294808 -0.191438 0.707239
C   1.338221 -0.739850 -0.387503
H   -0.866883 -0.690614 -0.417255
H   -0.086750 0.902556 -0.440894
H   -0.486688 -0.947824 1.943856
H   -0.558015 0.823545 1.881574
H   3.090060 -0.908698 0.941390
H   1.672516 -0.498161 -1.400524
H   1.298006 -1.831489 -0.298949



