24
0 1
C   2.888680 1.377483 0.427502
O   2.469703 2.445345 0.851356
O   3.922244 1.365114 -0.504562
H   4.198753 0.461449 -0.761761
N   1.441316 -0.002914 1.934279
C   0.923912 0.140132 4.286563
H   -0.146116 0.087409 4.132696
H   1.262959 0.225852 5.310770
C   1.822588 0.113827 3.275583
C   3.308813 0.195570 3.546367
H   3.759046 1.071625 3.063949
H   3.485916 0.279888 4.620345
H   3.841892 -0.696909 3.191963
C   0.059997 0.022280 -0.005305
C   0.023032 -0.010728 1.535537
C   2.344589 -0.014940 0.796665
C   1.447367 -0.557424 -0.354923
H   -0.755779 -0.550162 -0.455452
H   -0.015137 1.055118 -0.362114
H   -0.473233 -0.914425 1.920271
H   -0.499639 0.858510 1.953883
H   3.202503 -0.678693 0.971462
H   1.798839 -0.257188 -1.347068
H   1.435381 -1.651976 -0.309633



