24
0 1
 C                 -0.25468000    0.15539300    1.85336900
 O                 -0.06262400   -0.99487100    2.26033900
 O                 -0.20280100    1.25138900    2.68114000
 H                 -0.01175100    0.99342500    3.61020200
 N                  0.03113700   -0.26681900   -0.57287600
 C                  2.23385200    0.57546400   -0.02638400
 H                  1.88481400    1.24189000    0.75315200
 H                  3.30048300    0.56540300   -0.21265900
 C                  1.41214000   -0.22261600   -0.75622400
 C                  1.96634300   -1.12900300   -1.83445400
 H                  1.61129800   -0.83988800   -2.83158900
 H                  3.05713800   -1.08063200   -1.84088500
 H                  1.67076100   -2.17296700   -1.67452700
 C                 -2.22960500   -0.23568700   -1.24433500
 C                 -0.92699500   -1.03835900   -1.39321100
 C                 -0.63510300    0.55648500    0.43368300
 C                 -2.15882200    0.30357200    0.19970000
 H                 -2.24105800    0.59325800   -1.96104000
 H                 -3.12012900   -0.84703200   -1.41447000
 H                 -0.59641900   -1.09949400   -2.43198200
 H                 -1.04802400   -2.06378100   -1.01321800
 H                 -0.38283800    1.61649400    0.30514100
 H                 -2.52264200   -0.45581000    0.90113700
 H                 -2.74306900    1.21366100    0.35122100



