111
Analysis from 47 .xyz files
C	0.0000000	0.0000000	0.0000000
H	-1.0876771	0.0000000	0.0000000
C	0.6734829	1.2204419	0.0000000
H	0.1135653	2.1515816	-0.0001816
C	2.0630848	1.2410649	0.0017556
H	2.5952013	2.1881466	0.0031849
C	2.7756895	0.0407881	0.0036486
H	3.8617944	0.0772419	0.0077127
C	2.1153615	-1.1946995	0.0000297
N	2.8651453	-2.3597819	0.0192636
H	2.4202661	-3.2650160	-0.0062612
H	3.8739797	-2.3184443	-0.0044763
C	-0.0594269	-2.5067416	0.0024466
H	-1.1408929	-2.3336705	0.0016476
H	0.1801072	-3.0905428	0.8970107
H	0.1808007	-3.0914038	-0.8914892
C	0.7090292	-1.2141787	0.0014525
Br	1.4230068	-0.8263721	-3.9211942
H	1.8015288	0.0505856	-2.8290509
Br	1.6517212	2.6332850	4.0339356
H	1.2718888	1.8588300	2.8672918
Br	-0.9865773	0.6945092	4.1675919
H	-0.2481569	0.6237760	2.9206584
Br	-0.0612751	-2.2450963	3.7619504
H	0.6808159	-1.1527460	3.1609657
Br	6.6994894	-2.7059411	-0.9225450
H	6.4108682	-4.0926443	-1.2369698
Br	2.4690338	0.7429629	4.1591004
H	1.7333504	0.6136190	2.9152553
Br	2.6699159	-1.3041861	4.3503144
H	2.4769098	-0.9274827	2.9625270
Br	5.7357651	-0.4933122	2.2759719
H	4.4385239	-0.4857727	2.9257560
Br	-4.0568534	0.4230596	-0.0396092
H	-4.2206511	0.0949119	-1.4433899
Br	4.2680254	-1.4979014	3.3304993
H	3.3145662	-0.4909447	2.9038091
Br	6.6349528	0.4910705	-1.0526499
H	6.8314094	1.2115540	0.1913032
Br	3.4138533	5.0438202	-0.4113828
H	2.0266991	5.4467883	-0.2752546
Br	-0.8217663	4.9687318	-0.4135842
H	-0.6651338	5.0431253	1.0269166
Br	0.5273914	1.5368390	3.9173529
H	0.8645643	0.5428844	2.9156145
Br	5.9625146	-3.6694404	-1.6732428
H	7.2274536	-3.2242555	-1.1193021
Br	6.7032067	-1.4258144	0.4238183
H	7.6718416	-0.3628349	0.2316417
Br	-3.8488404	0.8136527	-0.8306776
H	-4.2616842	1.4682636	0.3965777
Br	-3.5723637	1.1483608	-1.2201323
H	-2.7477862	1.8762862	-2.1663390
Br	-2.2854652	-1.3563922	-2.9622496
H	-0.9424798	-0.8129227	-2.8838782
Br	2.0421692	-4.8364664	-2.5304072
H	2.0750849	-4.1817303	-3.8247596
Br	6.4454982	-0.8207655	-1.2215515
H	6.6718521	-1.0290914	0.1963607
Br	6.2720942	0.2602904	-2.1709152
H	5.0899921	1.0043468	-2.5635032
Br	-0.1745156	-1.9131031	-3.6252003
H	-0.6441927	-0.6551953	-3.0754893
Br	3.3715857	1.0293292	-3.9280187
H	3.0359196	-0.0186475	-2.9824058
Br	2.7646338	-4.1234424	3.7553483
H	3.4983604	-3.3163024	2.7986450
Br	0.8450321	-0.9763707	3.6386665
H	0.1552683	0.1244114	2.9924349
Br	5.4627407	-4.7811800	-0.6246406
H	4.8726172	-5.6423135	0.3829874
Br	-3.7619805	1.7444232	0.0094818
H	-2.7663459	2.3190511	0.8947080
Br	-1.7368124	1.8416848	-3.3791483
H	-0.3512210	1.9011732	-2.9528755
Br	2.5002846	-4.3776792	-2.7905389
H	3.6249009	-3.4893406	-3.0168205
Br	3.8907231	0.2625278	4.2369716
H	3.7315976	0.8245705	2.9088534
Br	2.2288128	4.4458104	-2.4476729
H	1.1730906	3.4511765	-2.4832376
Br	1.8321454	-1.6784076	-3.7738255
H	2.8780615	-1.1825629	-2.8990065
Br	2.3961581	5.1384778	-0.4778573
H	3.7568340	4.8414848	-0.8846338
Br	-1.9189621	-2.5480885	3.6704730
H	-1.1524709	-1.4838079	3.0500627
Br	-3.3193960	1.5719123	1.2432056
H	-4.1355713	0.9789279	0.2004504
Br	0.0898992	-2.9073031	-3.8837008
H	-0.6531789	-1.6893803	-4.1475373
Br	0.1618571	-5.4466887	-2.7458774
H	1.5681703	-5.8032184	-2.7626204
Br	-2.0646855	4.6318843	-0.0052821
H	-2.1806532	3.7211700	1.1182221
Br	3.4251736	-4.9972231	-2.2391318
H	2.4707592	-6.0751792	-2.4186162
Br	-0.9759925	2.1181711	3.8465635
H	0.1432447	2.4459411	2.9834380
Br	1.1111849	-3.7094458	3.6768133
H	0.7425575	-2.7939237	4.7403188
Br	5.7109796	2.2991308	-0.7901240
H	6.6723130	1.3384435	-1.2980892
Br	-1.2837641	-5.3992017	-2.1224647
H	-1.4588477	-4.6518263	-3.3536781
Br	0.3307783	-6.2637623	0.0337639
H	0.1384130	-6.0358786	1.4536848
Br	3.1251475	-5.1040626	-2.2666709
H	4.2521222	-5.8110371	-1.6876841
Br	1.5138523	-4.4814576	-3.1876037
H	2.5566803	-5.4080682	-2.7888392
