207
Analysis from 50 .xyz files
C	0.0000000	0.0000000	0.0000000
H	-1.0835498	0.0000000	0.0000000
C	0.7457435	1.1053384	0.0000000
H	0.2726272	2.0824437	0.0000002
H	1.8290910	1.0746605	-0.0000032
O	0.5011031	-1.2692867	0.0000007
H	1.4727298	-1.2209928	-0.0000172
C	1.8561433	-4.5599473	-0.7646136
H	2.1507811	-5.6152183	-0.8800383
H	0.7718669	-4.3653423	-0.7797663
O	2.6789192	-3.6631387	-0.6285512
C	2.9457235	-2.4139390	-2.6304700
H	3.1826844	-3.2121410	-3.3518952
H	2.1493763	-1.7173680	-2.9376766
O	3.5285825	-2.3080295	-1.5586503
C	5.0045244	-0.7681367	-1.8024544
H	5.8593565	-1.0368637	-1.1615339
H	5.2492625	-0.5532610	-2.8549218
O	3.8587873	-0.7120228	-1.3736460
C	5.4860178	0.0902023	0.0693941
H	6.2873411	-0.6515264	-0.0770668
H	5.7741556	0.9970649	0.6246712
O	4.3508159	-0.0818484	-0.3565804
C	4.1337589	-2.3652031	-1.9544611
H	4.1829136	-3.4056659	-1.5956402
H	4.2174358	-2.2346712	-3.0452019
O	3.9953485	-1.4170621	-1.1918274
C	2.6965962	-0.8081381	-3.0263118
H	2.7187186	-0.5644207	-4.1004830
H	1.9730929	-1.5844971	-2.7303970
O	3.4274170	-0.2531465	-2.2153715
C	1.9548479	-3.9580005	-0.3122963
H	1.2307154	-4.2582667	0.4617862
H	1.5942146	-4.0244607	-1.3511816
O	3.0851556	-3.5758741	-0.0363929
C	1.5472348	-3.8354568	-1.2926495
H	1.1164036	-3.6658498	-2.2923241
H	0.8183871	-4.0043815	-0.4839460
O	2.7555955	-3.8361732	-1.0936455
C	1.5922296	-3.9759635	-1.8462731
H	1.7120027	-3.4965581	-2.8309335
H	0.7616447	-4.6953324	-1.7663166
O	2.3328752	-3.7259386	-0.9035798
C	1.8489899	-0.5507802	-2.7083243
H	1.6597954	-1.4739968	-3.2789450
H	0.9940404	0.1389453	-2.6240884
O	2.9369618	-0.3074738	-2.2015126
C	1.0103796	-1.3727793	3.0053748
H	0.2983444	-2.1790303	3.2434848
H	0.5586988	-0.4127415	2.7086125
O	2.2229519	-1.5330057	3.0664870
C	4.1999946	-2.1618060	-1.5488130
H	4.0778195	-2.6823560	-2.5120534
H	4.6255011	-2.7671788	-0.7325876
O	3.8839362	-0.9886158	-1.3956109
C	3.7793885	1.0921032	-2.8257552
H	4.3942866	1.9696338	-3.0818252
H	3.0349475	0.7968856	-3.5823329
O	3.9143596	0.4853323	-1.7706008
C	1.1118803	-1.4771997	3.3031188
H	0.2057027	-1.1341956	2.7787891
H	0.9680014	-2.3197463	3.9982231
O	2.2060266	-0.9566981	3.1251840
C	0.6534931	-2.2119337	-3.0550346
H	0.4327540	-1.1490391	-3.2428123
H	-0.0836001	-2.9274662	-3.4531084
O	1.6515330	-2.5738946	-2.4445924
C	-0.8525542	-2.6588792	-2.0708861
H	-1.7332923	-2.3018025	-1.5136358
H	-0.2659001	-3.4492032	-1.5759308
O	-0.5461126	-2.2074558	-3.1672662
C	-1.0702318	-3.7899810	-2.2496570
H	-2.0095021	-3.2158188	-2.2067570
H	-0.2822802	-3.4641331	-1.5520100
O	-0.9125460	-4.7277782	-3.0212855
C	-1.5404026	-2.8633073	-2.0187525
H	-0.4833109	-2.6367755	-2.2308182
H	-1.7232052	-3.7928032	-1.4562788
O	-2.4514060	-2.1308411	-2.3838617
C	2.2930019	-3.8950771	-0.0904795
H	2.3149385	-3.7372307	0.9996282
H	1.4799981	-4.5399003	-0.4605928
O	3.1172702	-3.3876619	-0.8407132
C	1.8456507	-0.3398863	-3.6930016
H	1.5472313	-1.3050981	-4.1323686
H	1.8248876	0.5211705	-4.3799557
O	2.1782331	-0.2313421	-2.5193978
C	0.8348993	-1.7247524	3.4649396
H	0.0730728	-2.4683776	3.7484412
H	0.7300514	-0.7343460	3.9359579
O	1.7379647	-1.9818787	2.6787477
C	1.6036219	-1.6575229	3.4902732
H	1.3407907	-2.3536998	4.3026702
H	0.7953096	-1.4351067	2.7754877
O	2.7197274	-1.1638632	3.3885517
C	0.8594356	-3.8991582	-0.8794589
H	1.4014475	-3.4804555	-1.7423855
H	-0.2385663	-3.8213383	-0.9251936
O	1.4387520	-4.4165309	0.0673553
C	1.1306819	-4.3608031	-1.2622930
H	0.7437470	-4.0420057	-0.2812829
H	0.6172347	-3.9316443	-2.1374790
O	2.0688636	-5.1401565	-1.3725763
C	-0.2313791	-4.2796293	-1.8155749
H	-1.2312088	-4.7130501	-1.9774953
H	-0.1642560	-3.1857047	-1.9277315
O	0.7404926	-4.9678481	-1.5299890
C	-1.1101685	-3.8347451	-2.2920595
H	-0.7933748	-3.3467874	-1.3565007
H	-0.4412792	-4.6269999	-2.6644508
O	-2.1372297	-3.5176866	-2.8788797
C	-0.3665665	-2.3565462	3.0642888
H	-0.5098891	-2.8357213	2.0826670
H	-1.2146516	-1.7540126	3.4268640
O	0.6664545	-2.4850757	3.7093366
C	3.6470269	1.1535387	-2.8110442
H	2.6881505	1.5968277	-3.1237460
H	4.2005497	0.6160855	-3.5974999
O	4.0694122	1.2516495	-1.6657479
C	-3.9049357	-2.1927596	0.2937733
H	-4.6406730	-2.8727676	0.7520429
H	-3.6421697	-2.4133706	-0.7531463
O	-3.4121015	-1.2543260	0.9071214
C	1.0738964	-4.5632381	-1.9359535
H	1.1798090	-3.5446805	-1.5296849
H	0.0387167	-4.9121940	-2.0787425
O	2.0421650	-5.2609617	-2.2105015
C	3.3891780	1.1915427	-2.6446036
H	3.4788274	2.0916468	-2.0157101
H	3.1007408	1.3713399	-3.6925696
O	3.5963100	0.0662997	-2.2079533
C	-0.3978713	-2.3230120	2.8483416
H	-1.4224574	-2.4732644	2.4723379
H	-0.0028745	-1.2988940	2.7539184
O	0.2581607	-3.2335525	3.3385222
C	0.6262838	-1.2432230	2.9514256
H	-0.3738082	-0.8763201	3.2323699
H	0.6675676	-2.2860030	2.5983512
O	1.6253524	-0.5389837	3.0265758
C	0.6359194	-1.7153628	3.7229132
H	0.5637052	-2.0623705	2.6797919
H	0.2955280	-0.6834423	3.9046540
O	1.0658417	-2.4290177	4.6204669
C	-4.5633039	-0.4211010	-0.0325946
H	-4.2737487	-0.5738981	-1.0845177
H	-5.6445500	-0.4669721	0.1737032
O	-3.7383892	-0.2140940	0.8485425
C	-0.9554419	-2.6122203	-3.0853073
H	-0.7173078	-3.5841571	-2.6244797
H	-0.6417850	-1.7253205	-2.5119104
O	-1.5303948	-2.5235967	-4.1629501
C	-0.3979369	-1.6373317	-3.1565215
H	0.6875106	-1.8140867	-3.2220408
H	-0.8990140	-2.0797070	-2.2807466
O	-1.0068534	-0.9922098	-4.0007828
C	0.2263150	-2.8338248	-3.5534725
H	1.1576034	-3.3689080	-3.7986646
H	0.2112230	-2.3318607	-2.5728808
O	-0.7283517	-2.7993040	-4.3197352
C	-4.2717737	-1.6296870	1.0569043
H	-5.0257895	-2.4256090	0.9487389
H	-4.1783920	-1.1981209	2.0662538
O	-3.5833962	-1.2500262	0.1178980
C	-0.3805769	-2.2221677	2.7481786
H	0.6434486	-2.5360938	2.4901990
H	-1.1617436	-2.9855330	2.6039297
O	-0.6336469	-1.0996550	3.1672965
C	-0.3108790	-0.6031869	3.4081504
H	0.1302686	-1.3844296	2.7687913
H	-1.3825666	-0.4059613	3.2458436
O	0.3461180	0.0053549	4.2434773
C	0.7201678	-1.3428230	3.7187724
H	0.9600350	-1.7352200	2.7176633
H	-0.1572531	-1.7948509	4.2082204
O	1.3844781	-0.4629503	4.2519279
C	-4.7268446	-1.0573577	-1.1941230
H	-5.2664229	-0.7848206	-2.1151605
H	-5.1659128	-1.8844635	-0.6137171
O	-3.7071111	-0.4795191	-0.8391793
C	-0.1107978	-2.1795233	2.5733058
H	-0.4947438	-3.0629653	2.0386591
H	0.9565611	-2.2150822	2.8439278
O	-0.8228879	-1.2219331	2.8484197
C	2.4216524	-3.0041236	-3.4751703
H	3.2650289	-3.7056235	-3.5768812
H	1.8104279	-2.8620141	-4.3806896
O	2.1797401	-2.4212433	-2.4256618
C	-3.1043178	-1.1405449	-2.2937940
H	-2.8740703	-2.2153093	-2.2189691
H	-2.9589324	-0.6920268	-3.2895101
O	-3.4957232	-0.4879949	-1.3342528
C	-3.0755480	0.9153039	-2.8723254
H	-2.4719481	1.7498429	-3.2634047
H	-3.5491310	0.2745076	-3.6331508
O	-3.2110308	0.7134130	-1.6720657
C	-4.6918334	0.3435693	-1.7228187
H	-5.3479950	-0.5400771	-1.6743188
H	-5.1101584	1.2173634	-2.2474556
O	-3.5722374	0.3538516	-1.2266958
C	-2.8147869	-0.4728224	-2.5339981
H	-2.1250245	-0.0926192	-3.3043257
H	-3.0349821	-1.5511249	-2.5843345
O	-3.3040733	0.2545703	-1.6788738
C	0.9937578	5.9316440	-0.0329959
H	0.8767786	6.8337759	-0.6544499
H	1.4742898	6.0884666	0.9459074
O	0.6149458	4.8282272	-0.4054360
