207
Analysis from 50 .xyz files
C	0.0000000	0.0000000	0.0000000
H	-1.0835498	0.0000000	0.0000000
C	0.7457435	1.1053385	0.0000000
H	0.2726270	2.0824437	0.0000002
H	1.8290908	1.0746607	-0.0000032
O	0.5011032	-1.2692867	0.0000005
H	1.4727299	-1.2209927	-0.0000171
C	0.4769270	-4.3792910	-0.4075617
H	0.0020636	-4.7343299	0.5209765
H	-0.2068027	-3.9459086	-1.1548563
O	1.6841578	-4.4609142	-0.5964282
C	2.5155252	-2.7652363	2.8289169
H	1.8955723	-3.3162814	2.1038383
H	2.5163586	-3.1668302	3.8548202
O	3.1606434	-1.7726047	2.5154783
C	2.9865521	-2.9324891	-2.3799769
H	2.0564195	-2.5506398	-2.8302834
H	3.2089935	-3.9932961	-2.5773705
O	3.7239643	-2.2250403	-1.7050857
C	2.5472438	-1.1692215	3.2712468
H	2.6088845	-1.2691743	4.3666651
H	1.7474422	-0.5093218	2.8989490
O	3.3163874	-1.7526670	2.5177559
C	4.5266937	-2.1156082	2.1155288
H	4.6880864	-1.0524717	2.3551625
H	4.9019255	-2.8330071	2.8627207
O	3.9675408	-2.4758761	1.0872809
C	0.8672370	-3.3583444	2.5432455
H	-0.1175907	-2.8720210	2.4575997
H	0.9743675	-4.3122137	2.0024938
O	1.7817914	-2.8711822	3.1959339
C	0.3803910	-3.0426376	-2.4526601
H	0.7452544	-2.0917488	-2.8726797
H	-0.7147985	-3.1570777	-2.4177413
O	1.1413640	-3.9142119	-2.0513907
C	-0.3430848	-3.6351490	-1.6390552
H	-1.2001153	-3.8945090	-0.9972122
H	-0.5845840	-3.0471568	-2.5388880
O	0.8015681	-3.9775678	-1.3702470
C	-0.3430848	-3.6351490	-1.6390552
H	-1.2001153	-3.8945090	-0.9972122
H	-0.5845840	-3.0471568	-2.5388880
O	0.8015681	-3.9775678	-1.3702470
C	5.5043665	0.8530550	0.4749315
H	6.3563375	1.4116050	0.8943342
H	5.5771181	0.6107217	-0.5973267
O	4.5408171	0.5235541	1.1551819
C	-0.9944651	3.6881944	-2.6822643
H	-1.1991069	4.1740771	-3.6496169
H	-0.8952596	2.5914064	-2.7134121
O	-0.8845973	4.3247324	-1.6418378
C	-0.2900281	1.5308454	-3.3834844
H	0.3730549	2.3154291	-2.9853883
H	-1.2476405	1.8839341	-3.7982889
O	0.0168525	0.3454086	-3.3660841
C	-1.3247893	2.8815204	3.6387746
H	-1.6850898	3.8944807	3.3983039
H	-1.5474104	2.5279478	4.6581775
O	-0.7173969	2.1944375	2.8271524
C	2.0819101	-2.7817963	-3.4070077
H	2.5629973	-2.5799832	-2.4366687
H	2.5035730	-3.6228656	-3.9802081
O	1.1412594	-2.1157143	-3.8208312
C	4.1517824	-0.5377626	2.2728057
H	4.1338559	-0.4968575	1.1720166
H	4.5646441	0.3520518	2.7743348
O	3.7402687	-1.5075462	2.8972376
C	2.4635690	-3.0070641	3.2257006
H	2.7308609	-2.8659085	2.1662849
H	3.0219475	-2.3848688	3.9432257
O	1.6032369	-3.8024553	3.5819596
C	0.1306653	1.4476879	3.0366183
H	0.0986806	0.4158509	3.4213527
H	-0.8452268	1.8879887	2.7767613
O	1.1808453	2.0640714	2.9064948
C	4.5809939	-0.5427011	-2.0656052
H	3.8723025	-0.2414742	-2.8534822
H	4.3249940	-0.2139489	-1.0457317
O	5.5861866	-1.1991294	-2.3073247
C	3.2094477	-3.8420568	1.0859235
H	3.8752932	-3.1477174	0.5490122
H	2.5160545	-3.3754266	1.8037104
O	3.2381382	-5.0517670	0.8974640
C	-0.3391037	0.1507981	-3.6866165
H	-0.1808647	-0.9189409	-3.4760214
H	-0.1506817	0.4629861	-4.7262277
O	-0.7003199	0.9401638	-2.8228089
C	3.0760878	-4.4618777	-0.2227286
H	3.2610049	-3.5089620	-0.7437744
H	3.3364670	-4.4760466	0.8476722
O	2.6120957	-5.4400419	-0.7951314
C	4.6641860	-1.6408063	1.7162811
H	3.7737555	-2.2789377	1.5994349
H	5.2957988	-1.5382188	0.8194550
O	4.9338814	-1.0827710	2.7725007
C	4.5214154	-2.6944713	-1.8047292
H	3.9614301	-2.6590606	-0.8566291
H	5.5139954	-2.2167036	-1.7880314
O	4.0706746	-3.2291917	-2.8100380
C	2.8170442	-3.7564503	-1.1790004
H	2.3935080	-3.2262271	-2.0468782
H	3.9055543	-3.9236683	-1.2096561
O	2.1241679	-4.1346989	-0.2427370
C	3.9867146	-2.5290004	2.0367258
H	3.9819378	-1.5104341	1.6169268
H	3.5869282	-3.3160758	1.3776059
O	4.4082606	-2.7702260	3.1609358
C	4.1594140	-1.0282167	-2.1335318
H	4.2445081	-0.7002994	-1.0852186
H	3.1326242	-1.1904675	-2.4984060
O	5.1406332	-1.2008401	-2.8456757
C	-1.0917436	-3.0955959	-3.0924047
H	-0.7845874	-3.7335076	-3.9364751
H	-2.0433184	-3.3713911	-2.6105351
O	-0.4202815	-2.1435287	-2.7149848
C	-2.0487164	2.6702684	-2.5288793
H	-2.4672743	2.9099337	-1.5383738
H	-2.5520816	3.1470791	-3.3850516
O	-1.0880893	1.9237180	-2.6688682
C	3.8660144	-3.1480991	2.1088685
H	3.8137540	-2.7499680	1.0829583
H	4.8813727	-3.2844968	2.5140832
O	2.8624938	-3.4208227	2.7556353
C	2.3607349	-4.6189654	0.8157601
H	2.8474452	-3.8827357	0.1563588
H	2.7327948	-5.6523787	0.7298287
O	1.4659132	-4.3093210	1.5923895
C	-0.5745893	-2.5170224	3.2115304
H	0.4682891	-2.8460840	3.0779107
H	-0.9642637	-2.5800439	4.2400916
O	-1.2552278	-2.1084745	2.2790290
C	-1.2108215	-4.1771003	1.3137398
H	-1.4727652	-5.0605468	1.9175932
H	-1.0747919	-4.3618686	0.2361904
O	-1.0796203	-3.0640337	1.8073065
C	2.5957032	-4.4385060	0.1928636
H	2.6420406	-3.8758342	-0.7531727
H	3.5239848	-4.4470998	0.7861386
O	1.5801757	-5.0158479	0.5604491
C	1.2661992	-1.2227334	-3.7749829
H	2.2832620	-1.5553064	-3.5128576
H	0.9771786	-1.3642417	-4.8286423
O	0.5075804	-0.7287502	-2.9502301
C	2.0680938	0.4004947	2.9874658
H	1.4493093	-0.5079518	2.9128866
H	3.1560664	0.2318941	3.0280270
O	1.5792238	1.5227642	3.0229106
C	-0.6356962	-2.8427740	-3.5896301
H	-1.5775136	-3.4143606	-3.5896086
H	-0.3556456	-2.3891181	-4.5537483
O	0.0538620	-2.7198811	-2.5850677
C	2.0806568	-1.7015604	3.0395873
H	2.9255840	-2.3932755	3.1857369
H	2.3544508	-0.6597330	2.8085279
O	0.9149654	-2.0663559	3.1280559
C	-0.3111677	0.1359142	-3.1120735
H	-0.8091466	1.0632602	-2.7868387
H	-0.9601530	-0.6019462	-3.6102061
O	0.8839465	-0.0615401	-2.9319267
C	-0.4359904	0.1832432	-3.0154842
H	0.6361490	0.0490140	-3.2304985
H	-1.0533571	-0.7258862	-3.0935742
O	-0.9098694	1.2703956	-2.7100714
C	-0.6414076	-0.2288993	-4.1618955
H	-1.0391535	-1.1467291	-4.6235424
H	-0.5032243	0.6245727	-4.8447181
O	-0.3709459	-0.1618231	-2.9693813
C	1.6345569	-0.7676305	3.3950912
H	2.5337140	-0.7178224	2.7604517
H	1.6989607	-0.2271914	4.3529709
O	0.6305366	-1.3826506	3.0582939
C	-0.9413277	-4.9323790	0.5117785
H	-1.9613954	-4.5818974	0.7361798
H	-0.8488527	-6.0044971	0.2756278
O	0.0252157	-4.1804595	0.5240146
C	0.4030792	-0.1430786	4.1508315
H	0.1063445	0.4967900	4.9971458
H	0.9921075	-1.0360127	4.4144035
O	0.0985208	0.1205960	2.9943460
C	-2.7414194	-2.8044544	0.0200686
H	-2.7521075	-2.7826400	-1.0813582
H	-3.6825957	-2.5079351	0.5099865
O	-1.7496039	-3.1361520	0.6572637
C	-2.9614827	-2.3222566	-0.3867229
H	-3.4790876	-1.6252549	-1.0649596
H	-3.4420158	-2.4766590	0.5925644
O	-1.9214426	-2.8876443	-0.7003982
C	0.2636469	-4.7713791	0.1052234
H	0.0550867	-5.8303734	-0.1156049
H	1.3004614	-4.4444082	-0.0732754
O	-0.5993678	-4.0086117	0.5213127
C	1.6733568	-4.3408499	-0.7480216
H	2.3314098	-4.1624087	-1.6133865
H	2.1764867	-4.6942058	0.1661751
O	0.4634252	-4.1585945	-0.7988870
C	-2.2786085	-2.4710651	-2.3351131
H	-3.3367937	-2.7553718	-2.2204620
H	-2.0658065	-1.7468946	-3.1376394
O	-1.3977240	-2.9293840	-1.6183668
C	-0.7260547	-4.0478485	-2.4224759
H	-1.1558255	-5.0430701	-2.6188484
H	0.0262847	-3.7035983	-3.1499600
O	-1.0621564	-3.3695355	-1.4598410
C	1.4703602	-5.0191594	-0.1983741
H	1.4860044	-5.9975960	0.3077370
H	2.3778660	-4.7652539	-0.7690940
O	0.5084624	-4.2642019	-0.1310646
