353
Analysis from 47 .xyz files
C	0.0000000	0.0000000	0.0000000
O	-1.2224240	0.0000000	0.0000000
O	0.6888642	1.2091124	0.0000000
H	1.6618543	1.0986491	0.0170866
N	0.2228162	-2.4952785	0.2051899
C	-1.2832722	-3.8880248	1.4812337
H	-1.5603660	-4.5006363	0.6328177
H	-1.7339291	-4.1436475	2.4315398
C	-0.4479573	-2.8287498	1.3904759
C	-0.1454042	-1.9642029	2.5952721
H	-0.5315450	-0.9456967	2.4720822
H	-0.6189663	-2.3886676	3.4829188
H	0.9333539	-1.8987910	2.7893922
C	1.4256106	-2.9047747	-1.7756197
C	0.1962159	-3.3662059	-0.9772721
C	0.9088214	-1.2349815	-0.0443576
C	1.4871363	-1.3889423	-1.4950005
H	2.3246182	-3.4016067	-1.3936290
H	1.3444365	-3.1226497	-2.8445764
H	0.2672495	-4.4127660	-0.6630163
H	-0.7346081	-3.2484517	-1.5540835
H	1.7231083	-1.0765302	0.6817816
H	0.8496753	-0.8507123	-2.2057205
H	2.4984410	-0.9793471	-1.5771237
C	5.0059836	1.2056170	0.5722747
H	5.3390576	1.2115046	-0.4830024
O	3.8000772	1.2402840	0.8417188
C	6.1049119	1.1540209	1.5963705
H	6.7740099	2.0164944	1.4759785
H	5.6873123	1.1514335	2.6054198
H	6.7173436	0.2547229	1.4480331
C	3.8235677	0.3632073	2.7768671
H	3.6678421	-0.4109117	3.5521555
O	3.3787870	0.1957429	1.6357545
C	4.5894927	1.5777156	3.2211714
H	5.5829926	1.2848895	3.5862164
H	4.6954184	2.2857088	2.3964884
H	4.0739144	2.0631013	4.0604528
C	4.9970956	1.8671612	-0.1283905
H	5.4204098	1.0636099	0.5038224
O	3.7755661	1.9393120	-0.3035253
C	5.9990387	2.8157399	-0.7245335
H	6.7180761	2.2644866	-1.3451396
H	5.4958001	3.5724225	-1.3301400
H	6.5766055	3.3042097	0.0714735
C	3.2018025	2.1635577	1.9335642
H	2.5489672	2.8540803	1.3664950
O	3.0240648	0.9424527	1.8605982
C	4.2723525	2.8190829	2.7601763
H	3.8198204	3.5042236	3.4894526
H	4.8662336	2.0664167	3.2830295
H	4.9261810	3.4252868	2.1192096
C	4.5259724	1.4363702	-1.5789418
H	4.2116030	0.7312679	-2.3717757
O	3.7099393	1.8242524	-0.7353485
C	5.9682849	1.8569261	-1.6230489
H	6.1927100	2.3357020	-2.5855737
H	6.1896674	2.5494003	-0.8081588
H	6.6206768	0.9769058	-1.5471382
C	2.5755396	2.6928245	-2.1732117
H	1.7235421	3.2452782	-1.7333504
O	2.6700227	1.4706084	-2.0142367
C	3.5585042	3.5284791	-2.9442758
H	3.9816314	4.3077122	-2.2963513
H	4.3622172	2.9046019	-3.3410119
H	3.0499487	4.0442856	-3.7695806
C	3.5284027	3.8630804	0.4361678
H	4.0112078	3.7838586	1.4287432
O	3.1456994	2.8442311	-0.1499179
C	3.3890386	5.2583507	-0.1050129
H	4.3767954	5.7307254	-0.1901325
H	2.9043032	5.2422362	-1.0834548
H	2.8014759	5.8751588	0.5879022
C	4.5595678	0.7696541	0.9004356
H	5.1168508	0.3159801	0.0588903
O	3.4734286	0.2954271	1.2517509
C	5.2163094	1.9586072	1.5439873
H	5.3750443	2.7508329	0.8001940
H	4.6000530	2.3401382	2.3608342
H	6.2070611	1.6810160	1.9276118
C	3.9686970	3.4256718	-1.1134118
H	4.9465154	3.0646525	-0.7417681
O	2.9327371	2.8158906	-0.8253732
C	4.0174284	4.6666712	-1.9599482
H	4.6528983	4.4988551	-2.8397565
H	3.0128993	4.9498945	-2.2813243
H	4.4704917	5.4918404	-1.3945787
C	2.8977262	2.4096807	-2.4775265
H	3.6467735	2.9953594	-1.9114069
O	2.7237195	1.2131003	-2.2207599
C	2.1489352	3.1697977	-3.5361164
H	2.8516277	3.5865699	-4.2699904
H	1.4341151	2.5172295	-4.0418474
H	1.6187842	4.0199824	-3.0867401
C	2.3582900	3.5928781	1.0369895
H	1.6309276	3.6972391	0.2095624
O	2.4609383	2.5187595	1.6401020
C	3.1695517	4.8206459	1.3427976
H	2.5062249	5.6565269	1.6023110
H	3.8578164	4.6281885	2.1685267
H	3.7361350	5.1297732	0.4544074
C	3.6926557	-2.6863263	2.6322704
H	3.9446555	-3.5294684	1.9613080
O	3.4097374	-1.5803028	2.1582646
C	3.7254421	-2.9982786	4.1021985
H	4.7246200	-3.3506530	4.3912017
H	3.4650031	-2.1133477	4.6867030
H	3.0240854	-3.8115517	4.3313252
C	-3.6210560	-1.5686228	-0.7465830
H	-3.9241910	-1.8843451	0.2697888
O	-2.7812533	-2.2234251	-1.3742592
C	-4.2942145	-0.3291215	-1.2657866
H	-4.0964090	0.5172965	-0.5945965
H	-3.9370576	-0.0923448	-2.2702529
H	-5.3829886	-0.4706018	-1.2849591
C	4.5110220	-0.0559787	2.1780031
H	5.0436752	-0.3738501	3.0944207
O	3.8458004	-0.8738819	1.5326142
C	4.6655945	1.3932397	1.8106458
H	5.7269628	1.6346649	1.6648444
H	4.1093524	1.6177235	0.8980789
H	4.3051338	2.0306962	2.6288943
C	0.5837175	4.1818387	-0.2537845
H	0.5680169	4.2810136	0.8482594
O	1.6100404	4.4554791	-0.8860775
C	-0.6981702	3.7062777	-0.8780309
H	-1.5171797	4.3943967	-0.6295102
H	-0.5927127	3.6377346	-1.9628154
H	-0.9747336	2.7245022	-0.4712841
C	3.2919626	-1.6446263	4.0058145
H	2.8036051	-2.6372528	4.0337849
O	2.8988683	-0.7827220	3.2117049
C	4.4228691	-1.4533490	4.9771751
H	5.2062857	-2.2014864	4.7966327
H	4.8439492	-0.4503489	4.8809504
H	4.0680985	-1.6077153	6.0048532
C	-5.4233850	0.9477885	-1.0566039
H	-5.8253143	0.8445662	-0.0307476
O	-5.9914677	1.6807778	-1.8739293
C	-4.1823387	0.1513695	-1.3474629
H	-4.3727263	-0.9177168	-1.1835919
H	-3.8572338	0.3126736	-2.3774458
H	-3.3783838	0.4394988	-0.6572083
C	-0.6232045	-2.2053607	-5.0027644
H	-1.2734833	-2.9994485	-4.5890678
O	0.6009277	-2.2591909	-4.8396232
C	-1.3346632	-1.1091739	-5.7452462
H	-2.0620981	-0.6170326	-5.0859420
H	-0.6192943	-0.3726393	-6.1171883
H	-1.9025403	-1.5294379	-6.5859048
C	-3.5161194	0.1945671	2.3747343
H	-4.1445269	-0.5349402	1.8292932
O	-2.6066828	-0.2006148	3.1128185
C	-3.8566060	1.6402637	2.1442826
H	-4.8979672	1.8337919	2.4343873
H	-3.1893979	2.2864064	2.7186604
H	-3.7751226	1.8817411	1.0761710
C	4.8603746	-1.1530718	0.5401689
H	4.5120330	-0.8887578	-0.4763837
O	4.0866598	-1.0725938	1.5008461
C	6.2929734	-1.5973057	0.6370976
H	6.9591805	-0.8075452	0.2649507
H	6.5497328	-1.8371060	1.6710933
H	6.4591664	-2.4774550	0.0018571
C	-2.8735607	3.2700374	0.4997398
H	-3.1839099	2.9510104	-0.5134176
O	-3.6737612	3.2117116	1.4401064
C	-1.4565409	3.7570057	0.6180402
H	-1.2940855	4.6122795	-0.0514088
H	-1.2375021	4.0495526	1.6471249
H	-0.7591730	2.9700042	0.3016230
C	-2.4422255	-1.0140804	-3.3293933
H	-3.3916163	-0.9060484	-2.7712095
O	-1.4242093	-1.4090771	-2.7500551
C	-2.5049834	-0.6527336	-4.7869832
H	-2.8289433	0.3900692	-4.9038562
H	-1.5286351	-0.7886689	-5.2569219
H	-3.2508085	-1.2754753	-5.2985991
C	2.5090672	-5.5940103	1.3529629
H	1.8211028	-5.5854770	2.2196896
O	2.0573014	-5.5613187	0.2028103
C	3.9727841	-5.6465459	1.6903809
H	4.1917278	-6.5451045	2.2825827
H	4.5751388	-5.6514660	0.7794904
H	4.2485112	-4.7833378	2.3105902
C	2.3349320	0.6342820	2.9626178
H	1.2905751	0.7876088	3.2948711
O	2.8220572	-0.5017843	2.9539851
C	3.0687001	1.8772656	2.5435066
H	3.0982973	2.5961179	3.3732188
H	4.0867551	1.6336417	2.2323988
H	2.5378569	2.3686321	1.7173240
C	-3.4271403	3.7151522	0.6556509
H	-4.3490046	3.7086795	0.0435177
O	-2.9086472	4.7882332	0.9837889
C	-2.8917261	2.3619960	1.0316533
H	-2.6724581	1.7781851	0.1276991
H	-1.9852956	2.4629267	1.6322976
H	-3.6478598	1.8002336	1.5960097
C	1.1868250	5.3118199	-1.5639229
H	0.3658645	5.8232968	-1.0263377
O	2.2101134	5.9344298	-1.8692913
C	0.9511286	3.8597848	-1.8723377
H	0.0467027	3.7458461	-2.4847744
H	1.8081403	3.4372742	-2.4011027
H	0.7776432	3.2998818	-0.9437772
C	-4.6590299	-2.6174485	-1.6982847
H	-4.5384622	-3.7042588	-1.5283151
O	-5.5626429	-2.2014387	-2.4320636
C	-3.6685758	-1.7385001	-0.9872792
H	-2.6460045	-1.9992310	-1.2912760
H	-3.8611367	-0.6870399	-1.2107262
H	-3.7283790	-1.9024358	0.0968619
C	-2.5746601	-2.0956888	5.7957780
H	-1.8427986	-1.3510570	6.1625001
O	-2.2138638	-2.9909746	5.0235724
C	-3.9797779	-1.9236000	6.3008597
H	-4.3627241	-0.9329473	6.0215637
H	-4.6311221	-2.6980586	5.8903219
H	-3.9952366	-1.9715834	7.3977972
C	1.0871267	3.9110649	3.3457718
H	0.6041890	4.8647214	3.0596019
O	2.1037483	3.9177767	4.0489414
C	0.4223570	2.6681201	2.8239982
H	0.3849976	2.6921610	1.7266956
H	0.9630413	1.7783555	3.1534769
H	-0.6168550	2.6198089	3.1754494
C	-0.7678952	-4.0198193	6.3519054
H	-0.0467847	-4.8259961	6.1181080
O	-1.3051377	-3.3845663	5.4376646
C	-1.0196469	-3.7822975	7.8145341
H	-0.0797867	-3.5294702	8.3232463
H	-1.7405109	-2.9735678	7.9519680
H	-1.3986375	-4.6986944	8.2861230
C	-4.9755561	-2.8604825	-0.8565196
H	-5.1556404	-1.9721173	-0.2217284
O	-5.8722160	-3.6947987	-1.0236411
C	-3.6047582	-2.9518151	-1.4661502
H	-2.8406156	-2.9608956	-0.6774483
H	-3.5159640	-3.8549036	-2.0737055
H	-3.4082457	-2.0680620	-2.0875814
C	-2.8490077	2.7157811	3.1632167
H	-3.8969212	2.4076069	3.3406679
O	-2.4112130	3.7499209	3.6798431
C	-2.0480517	1.8025669	2.2780120
H	-2.5275373	1.7144746	1.2939489
H	-1.0309435	2.1816448	2.1581473
H	-2.0172588	0.7922344	2.7070730
C	-0.9768254	-7.1301396	-1.5095818
H	-1.1246542	-6.5644168	-2.4490960
O	-0.3418520	-6.6264391	-0.5762507
C	-1.5911242	-8.5015249	-1.4776809
H	-1.1829382	-9.1170864	-2.2904018
H	-1.3970939	-8.9850949	-0.5179470
H	-2.6743439	-8.4340121	-1.6446853
C	3.6794198	-1.4308364	4.3450390
H	4.2120729	-1.7487078	5.2614568
O	3.0141979	-2.2487394	3.6996502
C	3.8339923	0.0183821	3.9776818
H	4.8953606	0.2598072	3.8318803
H	3.2777500	0.2428659	3.0651149
H	3.4735316	0.6558386	4.7959303
C	-0.6521684	-2.6878366	6.4425166
H	-0.1671427	-1.7043597	6.2938359
O	-1.2910085	-3.2093022	5.5216642
C	-0.4694368	-3.2992210	7.8033606
H	-0.8651466	-2.6263399	8.5758188
H	-0.9786247	-4.2635949	7.8606972
H	0.5993875	-3.4328714	8.0168218
C	-4.3246692	-4.8696628	4.0549993
H	-5.2208206	-4.5454314	4.6174667
O	-3.2764976	-4.2187861	4.1305514
C	-4.4946078	-6.1151858	3.2310628
H	-5.3004331	-5.9759663	2.4980481
H	-3.5652160	-6.3604282	2.7127351
H	-4.7918740	-6.9549766	3.8730889
C	-2.8766539	1.3953118	3.2911671
H	-3.8802906	1.3518045	2.8270512
O	-2.1843973	0.3740580	3.3675447
C	-2.4558753	2.7474021	3.7950275
H	-3.1718304	3.1106959	4.5443424
H	-1.4575866	2.6977507	4.2349491
H	-2.4611200	3.4751804	2.9727596
C	-4.6593213	-0.8195339	2.4815513
H	-4.4465855	-1.7818812	2.9847548
O	-5.7755243	-0.2988469	2.5863751
C	-3.5184447	-0.2345124	1.6971861
H	-3.1948704	-0.9387185	0.9190857
H	-3.8157096	0.7100713	1.2367818
H	-2.6542020	-0.0690952	2.3540992
C	2.4003084	-5.6051089	0.9944700
H	1.5331815	-5.9890676	0.4241636
O	2.5954759	-4.3875193	1.0804786
C	3.2751080	-6.6529951	1.6235473
H	3.6714022	-7.3267931	0.8521887
H	4.1018441	-6.1868557	2.1637307
H	2.6861691	-7.2722867	2.3130705
C	1.0142516	-4.3121726	5.2411080
H	1.8740103	-4.8678248	4.8208120
O	1.1852645	-3.1993674	5.7514326
C	-0.3156155	-5.0048689	5.1376513
H	-0.2775089	-5.9741762	5.6524698
H	-1.1032051	-4.3876362	5.5750335
H	-0.5516913	-5.2138133	4.0857845
C	-5.0589341	-0.7270446	-1.1751430
H	-5.4350779	-0.4448487	-0.1734123
O	-5.8468111	-1.1071787	-2.0485045
C	-3.5723809	-0.6100164	-1.3636681
H	-3.0483754	-1.2422256	-0.6344379
H	-3.2908906	-0.9069451	-2.3761764
H	-3.2484170	0.4227043	-1.1783337
C	-5.7684384	-3.6912385	1.6790841
H	-5.7898065	-2.7727688	1.0622052
O	-6.5112581	-3.7952670	2.6616366
C	-4.7982755	-4.7481249	1.2309177
H	-3.7771947	-4.3439475	1.2218757
H	-4.8441191	-5.6148872	1.8936379
H	-5.0256855	-5.0576013	0.2021697
C	-5.6350773	-3.5438091	1.4423391
H	-5.2005688	-2.9974668	2.3009981
O	-6.7855434	-3.2929049	1.0661916
C	-4.7377946	-4.5693608	0.8081422
H	-4.4411816	-5.3222989	1.5505382
H	-5.2451327	-5.0571417	-0.0268755
H	-3.8140042	-4.0943139	0.4521156
C	-1.0307196	-8.2781125	1.4312168
H	-1.1283208	-7.8818285	2.4598157
O	-0.1025104	-9.0435736	1.1474756
C	-2.0820972	-7.8198374	0.4597916
H	-2.0739555	-6.7243115	0.3836094
H	-1.9089885	-8.2576227	-0.5255785
H	-3.0793317	-8.1049933	0.8203783
C	-2.3697468	-1.5225596	-5.1004228
H	-3.4559929	-1.5411241	-4.8899285
O	-1.9515536	-1.8154471	-6.2261863
C	-1.4942981	-1.1269214	-3.9445085
H	-1.6462090	-1.8157026	-3.1027541
H	-0.4431912	-1.1353376	-4.2406169
H	-1.7693586	-0.1253845	-3.5880270
C	-5.1477661	-4.3383165	-0.8647773
H	-5.0691351	-5.1794139	-0.1499659
O	-6.2179971	-3.7335952	-0.9948918
C	-3.8916316	-4.0168684	-1.6249584
H	-3.5615402	-4.8942512	-2.1970476
H	-4.0596340	-3.1780329	-2.3037125
H	-3.0805715	-3.7702136	-0.9269927
C	-3.9747623	-3.0427354	-4.3438411
H	-4.0889348	-2.0637196	-4.8469074
O	-4.4286019	-4.0658013	-4.8686057
C	-3.2511489	-3.0119133	-3.0268325
H	-3.7738970	-2.3492491	-2.3242248
H	-3.1845497	-4.0164261	-2.6036359
H	-2.2420606	-2.5998208	-3.1600011
