367
Analysis from 49 .xyz files
C	0.0000000	0.0000000	0.0000000
O	-1.2332245	0.0000000	0.0000000
O	0.7373665	1.1653516	0.0000000
H	0.1400598	1.9431806	-0.0497898
N	2.0217116	-1.2089217	-0.8450837
C	0.6402457	-1.2006472	-2.8342343
H	-0.2982078	-1.2451151	-2.2967147
H	0.5755821	-1.1893708	-3.9146830
C	3.1256391	-1.0946215	-3.0472331
H	3.7565328	-1.9800016	-2.8946843
H	2.8838084	-1.0353094	-4.1102696
H	3.7264841	-0.2143423	-2.7863838
C	2.9928315	-1.7597287	1.2195787
C	3.2999189	-1.0829586	-0.1264470
C	0.8816180	-1.2420810	0.0678941
C	1.5207888	-1.3744883	1.4894477
H	3.0916118	-2.8464569	1.1175553
H	3.6613145	-1.4292122	2.0202876
H	4.1057174	-1.5848592	-0.6668671
H	3.5865059	-0.0289940	0.0174749
H	0.2239083	-2.0881609	-0.1653946
H	1.4754222	-0.4121964	2.0097391
H	0.9895994	-2.1112677	2.0971585
C	1.8529724	-1.1650559	-2.2316553
C	-2.4423313	4.0483332	-0.1777749
H	-2.6807661	3.8013263	-1.2297822
O	-1.4495951	3.5513341	0.3658048
C	-3.3932959	4.9986520	0.4942659
H	-4.4104902	4.5848065	0.4845447
H	-3.0828208	5.1854367	1.5244569
H	-3.4318902	5.9473300	-0.0573990
C	-1.0527395	4.6723928	-1.2897373
H	-0.9300665	4.2348405	-2.2987378
O	-0.9296522	3.9607789	-0.2865089
C	-1.3677142	6.1416679	-1.2565751
H	-2.2963100	6.3412867	-1.8078546
H	-1.4712076	6.4872842	-0.2258398
H	-0.5730229	6.7096030	-1.7583011
C	-0.6128347	3.9081280	2.3821263
H	-0.3808907	3.2868243	3.2679967
O	0.0377281	3.7692611	1.3402549
C	-1.7385002	4.8885573	2.5573795
H	-1.5140590	5.5775677	3.3825690
H	-1.8976242	5.4562312	1.6381393
H	-2.6614932	4.3591643	2.8287471
C	-1.0145389	3.9210391	2.4947926
H	-1.2078019	5.0042195	2.3766723
O	-1.0152740	3.1798984	1.5054887
C	-0.7634536	3.4593160	3.9029283
H	-1.6247050	3.7027742	4.5393408
H	-0.5829317	2.3825294	3.9257108
H	0.1017636	3.9876553	4.3249118
C	-2.1215148	-0.6673004	3.7352065
H	-2.4977851	-0.9681335	4.7314509
O	-0.9058881	-0.5599757	3.5383681
C	-3.1768625	-0.4140613	2.6954040
H	-3.8578616	0.3782705	3.0337787
H	-2.7180731	-0.1238578	1.7478434
H	-3.7869980	-1.3152975	2.5493857
C	-2.1149069	-4.2355853	-0.2428067
H	-2.1572965	-3.9755617	-1.3175968
O	-1.2682568	-3.7104427	0.4889181
C	-3.1342675	-5.2384776	0.2199989
H	-3.0236712	-6.1758283	-0.3414181
H	-3.0199275	-5.4346896	1.2881768
H	-4.1478501	-4.8666860	0.0194130
C	2.7015562	-4.5981515	-2.0598098
H	2.4456404	-3.8664123	-2.8495235
O	3.2349124	-4.2175827	-1.0116159
C	2.3561005	-6.0281978	-2.3675534
H	2.8688914	-6.3518751	-3.2831546
H	2.6420488	-6.6776918	-1.5375125
H	1.2787251	-6.1240101	-2.5570143
C	1.4263406	3.2192429	2.6757933
H	2.3063183	3.7836888	3.0385920
O	1.0266461	3.3727337	1.5161826
C	0.7944120	2.2938718	3.6775083
H	0.4707874	2.8589038	4.5618457
H	-0.0624004	1.7803512	3.2362081
H	1.5288040	1.5550503	4.0248188
C	2.8225599	-4.7788378	-2.6449937
H	2.4211236	-5.0190245	-1.6421268
O	3.9409327	-4.2645532	-2.7579801
C	1.9231803	-5.1204550	-3.7997629
H	0.9659019	-4.5911634	-3.7022161
H	2.3969237	-4.8508792	-4.7460571
H	1.6935004	-6.1942494	-3.7946630
C	-2.4328571	-2.7426908	-1.4826908
H	-2.3440997	-2.2774926	-2.4828386
O	-1.4859367	-3.3814189	-1.0100594
C	-3.7492109	-2.5344364	-0.7877659
H	-4.5675136	-2.9343773	-1.4013414
H	-3.7482912	-3.0251023	0.1878482
H	-3.9435946	-1.4611462	-0.6609725
C	7.3304423	-2.6487394	-1.6215922
H	7.4248870	-3.0328163	-2.6551047
O	6.2488425	-2.2026374	-1.2226602
C	8.5805378	-2.7175924	-0.7899681
H	9.3863010	-2.1476656	-1.2716066
H	8.3966828	-2.3197076	0.2102629
H	8.9279369	-3.7566428	-0.7157961
C	2.0318758	-5.5236407	-0.3108340
H	2.8263603	-5.3773158	-1.0671185
O	2.0214020	-4.8379407	0.7176201
C	1.0167768	-6.5830758	-0.6367933
H	1.5135476	-7.5531206	-0.7719926
H	0.2740168	-6.6589488	0.1601555
H	0.5170951	-6.3479530	-1.5859239
C	-0.7363526	4.1274166	1.5991935
H	-0.7627242	4.4287246	0.5347214
O	-0.5386768	2.9459092	1.9041141
C	-0.9530403	5.2365037	2.5901780
H	-1.9266736	5.7136911	2.4158875
H	-0.9107863	4.8507505	3.6109551
H	-0.1902738	6.0153065	2.4580154
C	-1.8750742	-3.6808231	0.8978993
H	-2.0048147	-2.6305645	1.2214841
O	-1.1184449	-3.9508785	-0.0415657
C	-2.6671616	-4.6976457	1.6710403
H	-3.7397011	-4.4714154	1.6037675
H	-2.4790109	-5.7020824	1.2859649
H	-2.4003397	-4.6543688	2.7353460
C	-4.0102234	-1.6909744	-0.1912544
H	-3.3768151	-0.8215910	0.0686483
O	-3.4892566	-2.7466216	-0.5683683
C	-5.4911257	-1.4769010	-0.0492014
H	-5.8147724	-0.6425112	-0.6856708
H	-6.0364149	-2.3819670	-0.3250492
H	-5.7350764	-1.1997296	0.9849539
C	-4.4575851	2.9172572	-0.2817781
H	-4.6652101	2.9727671	-1.3673163
O	-4.5526259	3.9304411	0.4199611
C	-4.0682330	1.5598698	0.2329864
H	-3.1673814	1.2039311	-0.2845277
H	-3.8829445	1.5976013	1.3085426
H	-4.8636038	0.8331381	0.0207143
C	0.4137688	3.3823283	-3.2629052
H	1.4085678	3.6378964	-3.6747821
O	0.3234897	2.8106799	-2.1706233
C	-0.7593690	3.7768198	-4.1156669
H	-0.6876215	3.2979740	-5.1013676
H	-1.6961207	3.4878079	-3.6344755
H	-0.7525735	4.8611441	-4.2888952
C	-1.9643129	-2.4260857	2.7894019
H	-2.6385670	-1.6119119	2.4621633
O	-1.1593753	-2.9218923	1.9929952
C	-2.1128658	-2.8508895	4.2234701
H	-3.1402480	-3.1897763	4.4123847
H	-1.4120871	-3.6547529	4.4586076
H	-1.9329830	-1.9974620	4.8906409
C	1.3048922	-4.9549770	-0.9875938
H	1.2625027	-4.6949535	-2.0623838
O	2.1515423	-4.4298344	-0.2558691
C	0.2855317	-5.9578694	-0.5247883
H	0.3961281	-6.8952201	-1.0862052
H	0.3998716	-6.1540814	0.5433896
H	-0.7280509	-5.5860778	-0.7253741
C	7.0029250	-3.2858344	-0.5734048
H	7.1165218	-4.1417520	-1.2655636
O	6.2684091	-2.3383767	-0.8747722
C	7.7878521	-3.3800582	0.7049103
H	8.8594910	-3.4738601	0.4839168
H	7.6167269	-2.4972515	1.3245435
H	7.4986146	-4.2823219	1.2599555
C	1.8929407	-4.6053885	-1.1628925
H	1.0657070	-4.7003613	-0.4340252
O	2.9508232	-4.0582972	-0.8318520
C	1.6214713	-5.1765991	-2.5263811
H	0.7438482	-4.6894592	-2.9719360
H	2.4873907	-5.0396929	-3.1775470
H	1.3843761	-6.2458823	-2.4474343
C	-2.0189009	-2.4827563	2.6154347
H	-2.3130045	-2.4245410	3.6806562
O	-1.0499936	-3.1716343	2.2767935
C	-2.8675602	-1.6840484	1.6662661
H	-2.8501794	-0.6222891	1.9462876
H	-2.5073996	-1.7994354	0.6417920
H	-3.9139487	-2.0111334	1.7287154
C	5.5058663	-0.7817284	4.8913864
H	5.9100993	0.1488065	5.3332952
O	5.0079443	-0.7651656	3.7600989
C	5.6143784	-2.0072414	5.7547641
H	5.0869368	-1.8477647	6.7047216
H	5.1930907	-2.8745730	5.2420952
H	6.6659128	-2.2010443	6.0048224
C	-0.3877033	-4.0391574	4.7195207
H	-1.4444177	-4.3656432	4.6828546
O	0.0975699	-3.4034352	3.7769817
C	0.3644100	-4.4231674	5.9628789
H	0.3615121	-5.5146718	6.0839448
H	1.3938443	-4.0620076	5.9138362
H	-0.1317503	-4.0047904	6.8486548
C	-3.9301114	-0.8653947	-1.3851576
H	-2.9252884	-1.3102020	-1.5157726
O	-4.9406626	-1.5574170	-1.5522008
C	-3.9485748	0.5884182	-1.0041519
H	-3.4302380	1.1851602	-1.7665644
H	-4.9760508	0.9424680	-0.8968269
H	-3.4060253	0.7385787	-0.0613342
C	6.7177162	-2.9486550	-0.6227273
H	6.2663169	-3.3238853	0.3153685
O	5.9942693	-2.5523151	-1.5433528
C	8.2199308	-2.9658399	-0.6689206
H	8.5905340	-3.9890478	-0.5214566
H	8.5773995	-2.5803278	-1.6260901
H	8.6298185	-2.3593253	0.1495813
C	5.7062296	-3.7748276	-2.9795996
H	5.3944178	-3.2421782	-3.8980989
O	5.1146708	-3.5704652	-1.9136230
C	6.8604260	-4.7235871	-3.1431970
H	7.7417399	-4.1851925	-3.5166458
H	7.0991320	-5.2029238	-2.1914446
H	6.6164802	-5.4895141	-3.8913010
C	5.4789040	-4.3907932	-1.2344210
H	5.9755507	-4.0357878	-0.3114390
O	5.2067004	-3.5924275	-2.1380413
C	5.1814010	-5.8632901	-1.2826191
H	4.5343955	-6.1455048	-0.4413190
H	4.6937925	-6.1241616	-2.2242989
H	6.1098507	-6.4397813	-1.1756034
C	-2.9630733	-1.9025589	-1.3863378
H	-3.0309379	-1.4605344	-0.3741166
O	-2.0155294	-2.6409157	-1.6778885
C	-4.0774751	-1.5378809	-2.3266552
H	-4.1219342	-0.4480918	-2.4548354
H	-3.9304118	-2.0159752	-3.2974152
H	-5.0432993	-1.8470560	-1.9054574
C	6.9791836	-2.9897800	-2.9742631
H	7.5660514	-2.7569897	-2.0654300
O	5.7517250	-3.1176373	-2.9034806
C	7.7769435	-3.1288918	-4.2404801
H	8.5256463	-3.9246190	-4.1295334
H	7.1204790	-3.3573821	-5.0827527
H	8.3282490	-2.2011221	-4.4432584
C	-2.1946273	-3.0734738	-1.1176741
H	-2.2901853	-2.0313610	-0.7578792
O	-1.0793322	-3.5406989	-1.3742471
C	-3.4860327	-3.8295797	-1.2578668
H	-4.1544253	-3.3089779	-1.9566315
H	-3.2981867	-4.8438792	-1.6163179
H	-4.0067060	-3.8699545	-0.2919048
C	-0.4695282	-3.6141108	4.5592596
H	-0.1436873	-4.4798213	5.1666768
O	-0.2512178	-3.5933307	3.3427396
C	-1.1682872	-2.5198813	5.3165415
H	-0.5127144	-2.1291194	6.1062100
H	-1.4533320	-1.7098701	4.6418506
H	-2.0625312	-2.9171598	5.8148495
C	-4.1731227	1.5964675	-2.4735933
H	-4.7904848	0.8119644	-2.9510886
O	-3.8038490	2.5781824	-3.1277227
C	-3.8425274	1.3663281	-1.0255530
H	-3.3026568	0.4172730	-0.9077361
H	-3.2336236	2.1856381	-0.6375532
H	-4.7653323	1.2811819	-0.4364904
C	6.7978102	1.4204940	-2.2645849
H	7.3934535	1.2475171	-1.3481400
O	5.6543993	0.9599042	-2.3566762
C	7.4775732	2.2287897	-3.3340044
H	8.4087809	1.7365470	-3.6448035
H	6.8203072	2.3496883	-4.1976952
H	7.7565577	3.2156440	-2.9414489
C	3.6830122	-0.6277620	5.0721263
H	2.9414989	-1.1727950	5.6866830
O	3.3728497	-0.2131831	3.9496577
C	5.0363795	-0.4482924	5.7008276
H	5.4745531	-1.4265965	5.9395157
H	5.7011976	0.0973542	5.0278762
H	4.9427517	0.0969107	6.6494059
C	-0.4860736	-0.4982021	-6.9491742
H	-1.3815332	-0.0008735	-6.5303673
O	0.3550910	-0.9984800	-6.1940741
C	-0.3942473	-0.5071863	-8.4493626
H	-0.3993612	0.5213966	-8.8341197
H	0.5160722	-1.0158736	-8.7736040
H	-1.2709940	-1.0103131	-8.8783055
C	-1.5467047	-4.4017738	-1.1576753
H	-2.3245295	-3.6822547	-0.8385142
O	-0.3604081	-4.0562631	-1.1942111
C	-2.0450600	-5.7715154	-1.5244562
H	-2.7729578	-5.7015945	-2.3437990
H	-1.2139536	-6.4127667	-1.8255135
H	-2.5697970	-6.2231513	-0.6721127
C	-1.3540095	2.5012997	-5.3857500
H	-2.3536192	2.1685780	-5.0471355
O	-1.1171349	3.7061672	-5.5278661
C	-0.3606497	1.4032331	-5.6437502
H	-0.7467191	0.7170472	-6.4093520
H	0.5935976	1.8204152	-5.9723049
H	-0.2096300	0.8089866	-4.7327741
C	-3.6072061	-3.8929629	-1.8890356
H	-3.8950305	-3.5476293	-2.9002154
O	-4.4137013	-4.5241822	-1.1968363
C	-2.2113565	-3.5390630	-1.4584117
H	-2.0756440	-2.4494206	-1.4759705
H	-2.0138988	-3.9174216	-0.4532093
H	-1.4809395	-3.9607240	-2.1616231
C	-4.0470379	-2.8739336	-2.9166364
H	-4.2295376	-1.7833771	-2.9609433
O	-4.9630372	-3.6434231	-2.6054397
C	-2.6485761	-3.3092327	-3.2541236
H	-1.9305995	-2.8358280	-2.5711562
H	-2.5592271	-4.3954506	-3.1853910
H	-2.3852253	-2.9806339	-4.2682647
C	-2.8417729	4.2196990	1.2544684
H	-2.5339733	3.6520760	2.1531598
O	-3.8615879	4.9177368	1.2815419
C	-1.9462495	4.0687551	0.0568324
H	-1.8833944	3.0124276	-0.2368820
H	-2.3237079	4.6605436	-0.7797609
H	-0.9259730	4.3897738	0.3054210
C	-1.0999563	1.0860863	-6.4421037
H	-0.6139655	0.2186751	-6.9278956
O	-1.4847572	2.0428347	-7.1236994
C	-1.2407826	0.9949517	-4.9484703
H	-0.2532095	0.8780802	-4.4825442
H	-1.7286775	1.8893138	-4.5552122
H	-1.8259797	0.1060384	-4.6779320
C	1.9291913	-5.2091838	-2.6809769
H	2.2853042	-5.0749469	-1.6418682
O	2.6130848	-5.8415415	-3.4936425
C	0.6005073	-4.5805918	-2.9949026
H	0.6404252	-3.4993848	-2.8066346
H	0.3284336	-4.7619652	-4.0368509
H	-0.1758321	-4.9888164	-2.3342490
C	-3.4888063	2.5299650	-2.4262673
H	-4.0731347	2.5248879	-1.4865242
O	-3.9299250	3.1057679	-3.4272057
C	-2.1727512	1.8059439	-2.3726907
H	-2.3312733	0.7542225	-2.0991955
H	-1.6661458	1.8617304	-3.3385145
H	-1.5329095	2.2427463	-1.5944751
C	4.8598996	3.8298039	1.6705217
H	5.1731636	3.4448711	2.6595997
O	5.4627879	4.7779589	1.1552163
C	3.6894487	3.1250467	1.0440714
H	2.8140348	3.1868287	1.7042837
H	3.4503867	3.5681665	0.0750146
H	3.9153766	2.0580545	0.9164092
C	-2.3351286	-3.6077386	-5.2065435
H	-1.7662851	-3.0462903	-5.9719034
O	-3.2957001	-4.3106424	-5.5400712
C	-1.8526742	-3.4426278	-3.7926643
H	-1.8852857	-2.3835905	-3.5038330
H	-2.4685985	-4.0290818	-3.1076201
H	-0.8048888	-3.7610499	-3.7116297
C	-5.1170913	0.3027773	1.6004071
H	-5.8265367	0.8539696	0.9542977
O	-5.4192491	0.0407190	2.7700388
C	-3.8153887	-0.0781843	0.9527062
H	-3.2936067	0.8202014	0.5967658
H	-3.1798179	-0.6160951	1.6593026
H	-4.0017174	-0.7064193	0.0715616
C	2.3932043	-6.8562914	-0.3830752
H	2.0100201	-7.2308839	-1.3512865
O	2.5815850	-7.6401866	0.5539589
C	2.6501754	-5.3767974	-0.3187201
H	1.7263105	-4.8234004	-0.5338301
H	3.0247272	-5.0964088	0.6680271
H	3.3795156	-5.0864933	-1.0865741
C	4.7825505	-5.9287371	-1.5647191
H	4.3320858	-6.3006550	-2.5045816
O	4.6851325	-6.5917422	-0.5259958
C	5.4892354	-4.6060884	-1.6660842
H	4.7934095	-3.8321099	-2.0165559
H	5.9013168	-4.3175579	-0.6967978
H	6.2969050	-4.6653883	-2.4076815
