374
Analysis from 50 .xyz files
C	0.0000000	0.0000000	0.0000000
O	-1.2298043	0.0000000	0.0000000
O	0.6880598	1.1839126	0.0000000
H	1.6739428	1.0881855	-0.0510304
N	2.0238881	-1.2376114	0.8546147
C	3.3907774	0.0440220	-0.6870115
H	2.6995682	-0.0219981	-1.5195546
H	4.3321619	0.5373148	-0.8875580
C	4.2745696	-0.5376842	1.5733425
H	4.6844996	-1.5378639	1.7617114
H	5.0964668	0.1018010	1.2467891
H	3.8956082	-0.1505164	2.5260906
C	0.8812494	-3.1587139	1.6066662
C	1.7930636	-2.0163413	2.0884518
C	0.8378774	-1.3031375	-0.0224327
C	0.0104642	-2.5094417	0.5038638
H	1.4956539	-3.9648694	1.1897762
H	0.2783383	-3.5787829	2.4172356
H	2.7338228	-2.3784483	2.5058615
H	1.2915378	-1.4061989	2.8553707
H	1.1611413	-1.4664609	-1.0606497
H	-0.9411346	-2.1443446	0.8977129
H	-0.2215048	-3.2121740	-0.3004041
C	3.1948641	-0.5767958	0.5129721
C	-0.9461518	-1.8756731	-3.4288766
H	-0.9110845	-0.7983207	-3.6792067
O	-0.0199874	-2.3953928	-2.7963238
C	-2.1666643	-2.6107935	-3.9074427
H	-2.2506421	-2.5323369	-4.9996145
H	-2.1175817	-3.6625518	-3.6176632
H	-3.0720076	-2.1537659	-3.4863817
C	0.7172649	0.5626286	-4.0431810
H	-0.2494393	0.6217369	-3.5078567
O	1.6526030	-0.0877186	-3.5633858
C	0.7818213	1.3112925	-5.3448771
H	0.5717475	2.3763302	-5.1787121
H	1.7670107	1.1984747	-5.8023164
H	0.0107162	0.9397834	-6.0327660
C	1.7885544	2.5250862	3.2407856
H	1.1570032	3.0610237	2.5069622
O	2.2778247	1.4271543	2.9523894
C	1.9852459	3.2244204	4.5565828
H	1.0145488	3.4025221	5.0383232
H	2.6182637	2.6270474	5.2161363
H	2.4446654	4.2087830	4.3960297
C	0.5615838	2.0969048	2.9690304
H	0.0111025	1.5769792	2.1620418
O	1.2454434	1.4492759	3.7696083
C	0.4064408	3.5916219	2.9978362
H	-0.6529301	3.8592073	3.1081914
H	0.9809736	4.0197831	3.8219518
H	0.7453291	4.0247883	2.0473969
C	0.0743924	1.3983432	4.0615643
H	-0.4698273	2.0466925	3.3487873
O	1.0369038	0.7251054	3.6764218
C	-0.4424099	1.4133111	5.4728649
H	-1.4946793	1.0996682	5.4929717
H	0.1508887	0.7485882	6.1043053
H	-0.4081891	2.4338838	5.8766886
C	1.8275647	-0.6898548	-4.2191766
H	2.5986643	0.0625607	-3.9664724
O	1.0911019	-1.1431984	-3.3359358
C	1.7638778	-1.0885954	-5.6669431
H	2.7303457	-1.4993356	-5.9883140
H	0.9787413	-1.8310364	-5.8248002
H	1.5700554	-0.2075583	-6.2930580
C	5.1091825	-4.2522146	3.6244272
H	4.5965457	-5.0913752	3.1168881
O	4.6129823	-3.1202134	3.6051776
C	6.4023372	-4.6022822	4.3058097
H	7.1118071	-5.0186904	3.5782771
H	6.8369910	-3.7187626	4.7780871
H	6.2319882	-5.3793450	5.0627561
C	-0.6120639	3.7796339	-1.8100712
H	-0.1248043	3.1988173	-2.6161811
O	-0.1684304	4.8880762	-1.4898256
C	-1.8056605	3.1250468	-1.1729522
H	-1.5198624	2.1560404	-0.7423794
H	-2.2214409	3.7653883	-0.3921410
H	-2.5736782	2.9209107	-1.9307719
C	1.8789581	1.0074159	5.2999258
H	0.9425851	1.5850811	5.4186329
O	1.9504860	0.1103245	4.4525045
C	3.0002565	1.3979067	6.2214922
H	2.6852369	1.2868053	7.2676595
H	3.8808473	0.7793672	6.0356276
H	3.2556200	2.4562337	6.0781508
C	-2.9587615	0.2986928	-2.5881199
H	-2.2631937	1.0540797	-2.1756167
O	-3.0173120	0.1111904	-3.8085406
C	-3.7848346	-0.4411805	-1.5735911
H	-4.3889345	0.2663811	-0.9900958
H	-4.4392956	-1.1631123	-2.0666144
H	-3.1309169	-0.9619064	-0.8615170
C	-3.6437703	0.3031985	-1.9349913
H	-2.8743572	-0.0281677	-2.6580286
O	-4.5865716	-0.4429119	-1.6478383
C	-3.4434824	1.6788003	-1.3634299
H	-3.4198975	2.4232344	-2.1704669
H	-4.2451030	1.9221356	-0.6628808
H	-2.4744432	1.7370207	-0.8502177
C	-2.8075711	3.1835289	-1.2564917
H	-2.5636341	3.1884209	-0.1771152
O	-3.6655812	3.9541505	-1.7014334
C	-2.0346839	2.1994178	-2.0891073
H	-2.2000937	1.1790598	-1.7182219
H	-2.3381863	2.2630995	-3.1362023
H	-0.9577962	2.3967229	-2.0042716
C	0.9610069	-2.5869983	-3.9305683
H	1.7935089	-1.8686570	-4.0551042
O	0.4768888	-2.7865022	-2.8108184
C	0.4976628	-3.2637071	-5.1901141
H	1.3291729	-3.8131549	-5.6513571
H	-0.3224869	-3.9518898	-4.9748567
H	0.1682781	-2.5143667	-5.9221031
C	-3.3733938	-1.7457346	-1.8131754
H	-2.4345609	-1.4574811	-1.3031897
O	-3.7913559	-2.9062583	-1.7325234
C	-4.0583158	-0.6463748	-2.5756502
H	-3.3855475	-0.2446955	-3.3451198
H	-4.9718666	-1.0180731	-3.0445231
H	-4.3015405	0.1857454	-1.9016836
C	-1.4027021	0.2155418	3.8468406
H	-2.1745162	-0.5550740	3.6596583
O	-0.3300579	0.1801360	3.2334949
C	-1.7646292	1.2579571	4.8673587
H	-1.9830756	0.7816639	5.8324871
H	-0.9492636	1.9743767	4.9877688
H	-2.6774338	1.7857154	4.5606467
C	4.3667533	-3.8835967	-0.7386893
H	4.5206405	-2.8160268	-0.9860680
O	3.4840990	-4.2133428	0.0614363
C	5.2874856	-4.8470916	-1.4336768
H	6.3327191	-4.6098085	-1.1944470
H	5.0656643	-5.8729647	-1.1320871
H	5.1820570	-4.7514554	-2.5225073
C	0.0376894	0.4544673	3.9871427
H	-0.5326692	-0.4829777	4.1302194
O	1.2588617	0.4721701	4.1780278
C	-0.7734645	1.6454532	3.5597553
H	-1.5553092	1.8557160	4.3017496
H	-0.1329628	2.5221973	3.4429053
H	-1.2852249	1.4331859	2.6116746
C	-3.3356056	-0.9337707	-2.8667435
H	-4.1137614	-0.6188157	-2.1457302
O	-3.3876657	-2.0551581	-3.3842299
C	-2.2622876	0.0813687	-3.1434358
H	-1.7466224	0.3491844	-2.2115501
H	-1.5404754	-0.3117781	-3.8624625
H	-2.7082434	1.0050512	-3.5355420
C	1.1122122	-3.8775463	-3.3005446
H	0.7446185	-3.2847432	-4.1596385
O	1.6445430	-3.3112796	-2.3393068
C	0.9126152	-5.3633660	-3.4081507
H	1.4185878	-5.7484303	-4.3035636
H	1.3027388	-5.8667331	-2.5210195
H	-0.1548456	-5.5935478	-3.5237240
C	-1.1048858	0.0457396	-2.8671292
H	-0.5188118	0.9741358	-3.0056235
O	-0.5377198	-1.0016702	-2.5365729
C	-2.5831338	0.1729683	-3.1072828
H	-2.7706316	0.5208431	-4.1319166
H	-3.0801740	-0.7863795	-2.9486025
H	-3.0116554	0.9266404	-2.4333682
C	3.1070709	-4.2917772	5.0152156
H	2.7381368	-5.1011977	4.3569536
O	3.4287489	-3.1996318	4.5338075
C	3.1764877	-4.6297769	6.4780948
H	3.8338526	-5.4954293	6.6348234
H	3.5492292	-3.7774640	7.0501116
H	2.1825771	-4.9157335	6.8471258
C	-0.7086219	-1.7318937	-3.2300697
H	0.1936401	-1.3705929	-3.7591897
O	-0.6442804	-2.7330518	-2.5078822
C	-1.9581645	-0.9292955	-3.4614941
H	-2.2008869	-0.9088804	-4.5323424
H	-2.7948085	-1.3550483	-2.9035172
H	-1.8003979	0.1125309	-3.1524299
C	5.8340993	-4.3960635	2.6611825
H	5.2144546	-4.8858097	3.4362773
O	5.2961902	-3.7545930	1.7516872
C	7.3186813	-4.5760401	2.8118562
H	7.5728363	-5.6443381	2.7980190
H	7.8496363	-4.0619534	2.0078796
H	7.6499393	-4.1840679	3.7826493
C	5.9764304	-3.5758294	-0.2011110
H	5.3546126	-4.2816887	-0.7839386
O	5.7672555	-3.4174001	1.0068452
C	7.0467187	-2.8631619	-0.9793566
H	6.5976705	-2.2910550	-1.8022154
H	7.6088638	-2.1902648	-0.3283736
H	7.7300664	-3.5915316	-1.4357850
C	1.0010319	-0.1225352	5.8055870
H	1.8195593	0.5403826	6.1449033
O	1.2563811	-1.1291173	5.1350637
C	-0.3824745	0.2965387	6.2171270
H	-0.6028573	1.3011755	5.8321814
H	-1.1240748	-0.4114632	5.8411760
H	-0.4494349	0.3548490	7.3116267
C	-5.2347192	1.5911956	-0.6331001
H	-5.7171674	0.7746214	-1.2032170
O	-5.5082847	2.7697012	-0.8866722
C	-4.2631199	1.1528851	0.4265965
H	-3.4580484	0.5562638	-0.0227915
H	-3.8370028	2.0194573	0.9365511
H	-4.7672391	0.5059277	1.1567494
C	1.8426523	-3.1096048	-3.2923948
H	2.5602488	-2.2728970	-3.1946292
O	0.8100624	-3.1230261	-2.6129906
C	2.2239477	-4.1756300	-4.2809707
H	3.1930272	-4.6143708	-4.0081371
H	1.4626057	-4.9579053	-4.3122838
H	2.3445850	-3.7377236	-5.2807197
C	4.0996872	-5.4755963	-0.2643252
H	4.7850349	-4.8253612	-0.8405853
O	3.4794392	-5.0194715	0.7027606
C	3.9995456	-6.8960094	-0.7454449
H	4.9885929	-7.3728080	-0.7231872
H	3.3047299	-7.4627087	-0.1220190
H	3.6606329	-6.9179436	-1.7897008
C	2.6685278	0.9578910	5.4389795
H	1.7599072	0.3347780	5.5425242
O	3.2088805	1.0870430	4.3347373
C	3.1590637	1.6005817	6.7060239
H	3.3814041	0.8316110	7.4578854
H	4.0550598	2.1938768	6.5116826
H	2.3762863	2.2426107	7.1313138
C	2.1740955	3.8079882	0.6364267
H	2.0773849	3.9935549	1.7230705
O	2.9736252	2.9617138	0.2209944
C	1.2848366	4.6415557	-0.2430402
H	1.4864925	5.7088031	-0.0806681
H	1.4457136	4.3933672	-1.2942766
H	0.2314999	4.4747171	0.0186080
C	-3.0272354	3.6909762	1.4660535
H	-3.9511689	3.4825695	0.8937803
O	-2.8097195	4.8281493	1.8991081
C	-2.1072613	2.5178884	1.6573410
H	-1.7975037	2.1180906	0.6825288
H	-1.2255001	2.8129775	2.2300508
H	-2.6325296	1.7073809	2.1798198
C	4.1008261	-4.9705809	1.4827197
H	3.3733098	-5.2746161	2.2591637
O	4.5241068	-3.8096247	1.4506825
C	4.5054655	-6.0500614	0.5183199
H	3.6219366	-6.4395588	-0.0048584
H	5.2222340	-5.6635929	-0.2093213
H	4.9499106	-6.8945377	1.0615891
C	4.0311159	-1.1343209	5.3616433
H	4.8187751	-0.3743872	5.1983137
O	3.8106894	-1.9933579	4.5005511
C	3.2912282	-1.0280319	6.6656169
H	2.8098429	-0.0443601	6.7474997
H	2.5364688	-1.8135737	6.7420307
H	3.9936194	-1.1080064	7.5058930
C	7.0687974	-3.3382219	3.4192095
H	6.8638340	-4.3608195	3.0492541
O	6.2888929	-2.4160225	3.1559431
C	8.3236611	-3.1846468	4.2321118
H	9.1964561	-3.4929246	3.6411460
H	8.4459763	-2.1484173	4.5543602
H	8.2873695	-3.8425524	5.1105516
C	2.7732260	2.7592272	4.0240554
H	1.9569162	2.4729060	4.7141578
O	3.2263029	1.9333885	3.2236031
C	3.2550104	4.1776745	4.1464034
H	3.6157652	4.3672642	5.1661870
H	4.0570898	4.3720107	3.4312259
H	2.4253734	4.8748542	3.9690443
C	7.6906609	-2.8521805	1.2159772
H	8.4429985	-3.5646483	1.6045135
O	6.5217680	-2.9066579	1.6143915
C	8.1999214	-1.8608353	0.2075296
H	8.6213742	-2.3868620	-0.6594885
H	7.3942018	-1.2003796	-0.1198707
H	9.0128803	-1.2640448	0.6419858
C	6.8783621	2.5147969	1.5934905
H	6.0189127	3.0428168	1.1383809
O	7.0467592	1.3084615	1.3827551
C	7.7771783	3.3619259	2.4499834
H	7.2032440	3.8090687	3.2726070
H	8.5945537	2.7623222	2.8561232
H	8.1865834	4.1931981	1.8607575
C	0.1938207	-2.3839202	5.8853266
H	-0.2480460	-3.3393213	5.5439391
O	0.7881875	-1.6545370	5.0836157
C	0.0116516	-2.0726855	7.3444447
H	0.4543879	-2.8683748	7.9583746
H	0.4766087	-1.1161369	7.5922480
H	-1.0574835	-2.0387200	7.5926579
C	4.8300344	-3.1622135	4.7969716
H	3.7684141	-3.2759151	5.0878618
O	5.1326421	-2.4837061	3.8090098
C	5.8202619	-3.8759409	5.6739669
H	5.6049952	-4.9527493	5.6877785
H	6.8381794	-3.7096641	5.3151178
H	5.7314796	-3.5217457	6.7095715
C	8.1774943	-0.1031078	-0.3024030
H	8.4188406	-1.0542993	-0.8138417
O	7.0039325	0.1736958	-0.0301077
C	9.3541162	0.7769249	0.0141116
H	9.8908742	1.0358908	-0.9083169
H	9.0250358	1.6893806	0.5158161
H	10.0659624	0.2396322	0.6547401
C	2.8114032	-5.5014345	3.6193466
H	3.1576599	-6.4998374	3.2908945
O	3.3605858	-4.4818655	3.1870391
C	1.6664018	-5.5027232	4.5930242
H	1.9410629	-6.0607739	5.4981140
H	1.3915896	-4.4804376	4.8613282
H	0.7993758	-6.0153137	4.1556108
C	8.0633877	1.7944010	2.0268016
H	8.9387727	1.2317833	1.6503111
O	6.9232635	1.3421095	1.8733044
C	8.3768734	3.0965395	2.7088867
H	8.9150141	3.7628583	2.0215217
H	7.4587947	3.5817425	3.0469494
H	9.0402651	2.9233524	3.5666342
C	1.2245064	-0.1640667	5.8895628
H	0.9168513	-1.1348378	6.3226157
O	1.1997937	0.0040100	4.6651644
C	1.6541063	0.8792552	6.8825389
H	2.5012073	0.5097641	7.4757870
H	1.9390066	1.8004983	6.3699771
H	0.8391893	1.0866249	7.5887410
C	2.2138230	1.8426009	-4.2829547
H	1.1660957	2.1164015	-4.0551752
O	2.8584819	1.1459531	-3.4910527
C	2.7520736	2.3721104	-5.5825639
H	2.6971430	3.4688654	-5.5951229
H	3.7872050	2.0547561	-5.7252735
H	2.1376260	2.0144666	-6.4194382
C	5.1612014	3.2436473	-1.5431103
H	4.6217125	3.4690271	-2.4826521
O	5.8152424	2.1998902	-1.4391227
C	5.0296632	4.2762354	-0.4588881
H	3.9724436	4.4153989	-0.1962720
H	5.5912990	3.9735977	0.4274257
H	5.3980344	5.2472660	-0.8155611
C	1.7991455	4.9001582	0.2034898
H	0.9039121	4.6411387	-0.3932085
O	2.1303013	6.0829592	0.3425212
C	2.5377832	3.7346885	0.7994533
H	2.8679928	3.0512102	0.0058124
H	3.4027836	4.0811112	1.3689642
H	1.8702462	3.1599681	1.4551241
C	5.2145265	-1.2009362	5.5165263
H	4.3118190	-1.5792435	6.0328455
O	5.1349405	-0.7815344	4.3564485
C	6.4839881	-1.2433993	6.3201071
H	6.7002269	-2.2744725	6.6302290
H	7.3197062	-0.8529759	5.7355375
H	6.3689776	-0.6535849	7.2391854
C	-5.3739420	0.0638038	-0.1914320
H	-6.2073716	-0.6444212	-0.0229220
O	-5.4733532	0.9439566	-1.0536736
C	-4.1689987	-0.1362103	0.6844583
H	-3.7640194	-1.1473520	0.5443471
H	-3.3997445	0.6029250	0.4509978
H	-4.4527668	-0.0522438	1.7419264
C	-1.4711262	-2.2859750	-4.5288483
H	-0.7586829	-1.9700191	-5.3144560
O	-2.4100313	-3.0391452	-4.8102802
C	-1.2020397	-1.7393162	-3.1548634
H	-1.2142813	-0.6413912	-3.1762602
H	-1.9501217	-2.1010203	-2.4462589
H	-0.2003229	-2.0385492	-2.8189522
C	-3.9393457	-0.4220201	3.5036426
H	-4.8741697	-0.7096098	2.9859755
O	-3.8468717	0.6846056	4.0466347
C	-2.8466218	-1.4538513	3.4847575
H	-2.5771451	-1.6995028	2.4488595
H	-1.9657307	-1.0875610	4.0162075
H	-3.1979470	-2.3844240	3.9499653
