360
Analysis from 48 .xyz files
C	0.0000000	0.0000000	0.0000000
O	-1.2276684	0.0000000	0.0000000
O	0.7281639	1.1653096	0.0000000
H	1.6891406	0.9383501	-0.0527996
N	2.2374213	-1.0721106	-0.3624769
C	3.8789557	-0.9406786	-2.1453536
H	4.7241376	-1.0194787	-1.4734488
H	4.1074425	-0.8272600	-3.1973219
C	2.5931841	-0.9425189	-1.7309903
C	1.4549994	-0.7646523	-2.7128372
H	0.8869999	0.1532670	-2.5203702
H	1.8525501	-0.7001686	-3.7275544
H	0.7473539	-1.6019487	-2.6832740
C	2.3493073	-2.4253992	1.6128106
C	3.2143383	-1.6523894	0.5996828
C	0.8410064	-1.2749104	0.0896939
C	0.9956189	-1.6931650	1.5790411
H	2.2251715	-3.4638871	1.2834852
H	2.7910825	-2.4429674	2.6132997
H	3.9088530	-2.3107606	0.0664747
H	3.8052780	-0.8621007	1.0808526
H	0.3197158	-2.0566769	-0.4748053
H	1.0306238	-0.7982143	2.2121885
H	0.1530006	-2.3044028	1.9090047
C	-2.7297573	-1.8297536	-2.2120113
H	-3.1098998	-1.1197114	-1.4531210
O	-1.5178213	-1.8966809	-2.4459853
C	-3.7754107	-2.6639190	-2.8974711
H	-4.5047831	-2.0158007	-3.4014607
H	-3.3133237	-3.3328553	-3.6265641
H	-4.3331799	-3.2531195	-2.1575051
C	-2.6854568	-1.0976174	3.4376906
H	-3.1677172	-1.3076814	4.4112824
O	-2.0388372	-1.9806308	2.8630755
C	-2.8816389	0.2946714	2.9065386
H	-2.4921688	1.0304071	3.6228156
H	-2.3743446	0.4126654	1.9466913
H	-3.9525799	0.5055517	2.7864202
C	5.0696470	1.8663271	0.8471608
H	5.7925665	1.2815333	0.2471721
O	3.9279326	1.4324066	1.0374585
C	5.5825018	3.1738613	1.3823360
H	5.9085679	3.8185309	0.5552151
H	4.8066652	3.6813947	1.9594529
H	6.4623312	3.0031035	2.0168085
C	-1.4528645	-3.9545584	-1.0776485
H	-1.7403846	-2.9011536	-1.2572408
O	-0.2735177	-4.2443781	-0.8470882
C	-2.5770573	-4.9503790	-1.1377285
H	-3.0618231	-4.9135898	-2.1224597
H	-2.2043663	-5.9594652	-0.9495178
H	-3.3462252	-4.6966824	-0.3962217
C	3.6634791	2.3076764	1.6996298
H	2.6155173	2.2373986	2.0480835
O	4.1448402	1.4107585	0.9983154
C	4.4092267	3.5366576	2.1384281
H	4.4312689	3.5935458	3.2349338
H	5.4301395	3.5230364	1.7509641
H	3.8921534	4.4384933	1.7846756
C	-1.0332213	-4.1853827	-1.9141590
H	-1.7816997	-3.4443277	-1.5747471
O	0.1573056	-4.0468783	-1.6117117
C	-1.5749275	-5.3203466	-2.7372563
H	-2.0717009	-4.9313784	-3.6361261
H	-0.7708868	-6.0000456	-3.0272640
H	-2.3357544	-5.8703346	-2.1676344
C	4.3139579	1.9903485	0.4517969
H	4.9398567	1.4735211	-0.3003489
O	3.9591531	1.3966154	1.4763002
C	3.9539547	3.4126688	0.1254833
H	3.4106528	3.4554070	-0.8279543
H	3.3383594	3.8427379	0.9183642
H	4.8645910	4.0130189	-0.0015382
C	-3.1389469	-2.2771821	2.8741200
H	-3.3445218	-1.2053577	3.0571892
O	-1.9796821	-2.6623812	2.6850729
C	-4.3437341	-3.1758243	2.8770062
H	-5.0590587	-2.8507761	2.1097375
H	-4.0492819	-4.2105831	2.6895266
H	-4.8624535	-3.1088051	3.8425382
C	-1.8725511	2.3610844	1.6632334
H	-1.2606890	2.9370349	0.9431718
O	-1.4351843	2.1192079	2.7938165
C	-3.2194864	1.9224502	1.1607959
H	-3.1031802	1.2965095	0.2659674
H	-3.7521217	1.3634772	1.9330818
H	-3.8136152	2.7960455	0.8613704
C	-2.8367404	1.6680398	-3.4280737
H	-1.9550583	2.3248046	-3.3020599
O	-3.2000261	1.3286939	-4.5598334
C	-3.5170711	1.2484860	-2.1552018
H	-3.8529304	2.1328390	-1.5973800
H	-4.3722567	0.6051862	-2.3729169
H	-2.8093451	0.7148877	-1.5069657
C	-1.5294652	-5.1405526	0.9862783
H	-2.5563591	-4.7764909	0.7925494
O	-0.6069761	-4.3344483	1.1512686
C	-1.3706968	-6.6345926	1.0276927
H	-1.6927491	-7.0750756	0.0746429
H	-0.3304281	-6.9032076	1.2233042
H	-2.0150645	-7.0612917	1.8077770
C	-1.9623427	-4.8090525	2.6936854
H	-2.4871049	-4.2788588	3.5110607
O	-1.1115655	-4.2191641	2.0182434
C	-2.3625631	-6.2437967	2.4926609
H	-3.4378233	-6.3094910	2.2792446
H	-1.7972958	-6.6866804	1.6699194
H	-2.1864339	-6.8173341	3.4123601
C	-1.0463920	-3.9837654	-3.3666812
H	-0.2652802	-4.2383075	-4.1080686
O	-0.7594707	-3.3103695	-2.3705756
C	-2.4215226	-4.5087016	-3.6708786
H	-2.3987262	-5.6038354	-3.7496766
H	-3.1254451	-4.2113817	-2.8907051
H	-2.7646121	-4.1282033	-4.6421273
C	5.7139411	1.9668541	1.2998903
H	6.5418755	1.6391287	1.9569318
O	4.9125965	1.1386249	0.8527935
C	5.6590078	3.4419305	1.0166766
H	6.5937338	3.7705204	0.5430070
H	4.8150838	3.6746867	0.3638417
H	5.5651570	4.0034512	1.9556654
C	4.0192199	2.1859972	1.4633937
H	3.6914329	1.9532602	0.4323883
O	3.9716573	1.3158652	2.3401036
C	4.5038511	3.5912902	1.6855696
H	3.7120013	4.3084240	1.4311292
H	4.8058188	3.7315934	2.7256212
H	5.3520914	3.8074225	1.0225549
C	2.1509887	3.3021824	1.6183273
H	1.0601696	3.4766112	1.5529737
O	2.7643766	2.8430284	0.6483040
C	2.7846900	3.6589675	2.9337000
H	2.3187622	3.0844676	3.7454315
H	3.8573634	3.4556623	2.9088906
H	2.6152571	4.7202842	3.1588946
C	1.5852050	-6.2229858	-0.6578995
H	0.6515955	-6.4492123	-1.2072424
O	1.5697329	-5.4299724	0.2902052
C	2.8133184	-6.9363286	-1.1497912
H	2.9947424	-6.6919238	-2.2049682
H	3.6835566	-6.6551162	-0.5529814
H	2.6652253	-8.0231199	-1.0971928
C	1.2969571	0.7158711	4.9929479
H	2.0117383	1.5031283	4.6865218
O	1.3316541	-0.3963061	4.4545520
C	0.3277015	1.1079759	6.0727050
H	-0.2668396	1.9732343	5.7503763
H	-0.3364629	0.2745858	6.3112917
H	0.8721788	1.4161078	6.9751530
C	3.3969301	0.8686552	3.7018708
H	2.3598310	0.9692561	3.3291940
O	4.1951954	0.1255423	3.1200050
C	3.7265196	1.6812960	4.9225524
H	3.0599225	1.4059630	5.7507354
H	4.7654044	1.5217832	5.2189487
H	3.5593716	2.7479917	4.7224649
C	5.7358742	1.8493190	2.0614752
H	5.9503396	2.8152476	1.5659254
O	5.2010101	0.9328267	1.4274606
C	6.1368973	1.7618619	3.5073693
H	5.6260048	2.5410330	4.0886851
H	5.8895144	0.7789605	3.9139197
H	7.2147285	1.9439558	3.6119393
C	6.7242013	0.6911131	-0.1731979
H	5.8983515	1.3735031	-0.4505049
O	6.5376480	-0.5306566	-0.1510861
C	8.0298925	1.3580088	0.1577075
H	7.8958135	2.0561202	0.9947919
H	8.7844683	0.6128743	0.4184119
H	8.3778892	1.9521017	-0.6977252
C	-1.8231439	-4.5336730	0.2340090
H	-1.2680463	-5.1563102	0.9611764
O	-1.2118041	-3.7712015	-0.5229011
C	-3.3173459	-4.6951438	0.2531325
H	-3.7106255	-4.4524191	1.2493568
H	-3.7815276	-4.0465316	-0.4927993
H	-3.5867534	-5.7405387	0.0521791
C	2.4125693	-0.8394119	-6.7834381
H	1.3061193	-0.8473826	-6.8004028
O	3.0157984	-0.8339404	-5.7045049
C	3.0793945	-0.8360261	-8.1304388
H	2.7610748	0.0427013	-8.7071170
H	4.1657377	-0.8282568	-8.0191969
H	2.7735274	-1.7201581	-8.7053904
C	-2.3527539	2.3457836	3.0530077
H	-2.8323439	1.6282450	3.7456220
O	-1.4781806	3.1155932	3.4659568
C	-2.8416382	2.2978438	1.6325247
H	-3.9219736	2.4921351	1.5982739
H	-2.3164417	3.0357145	1.0223673
H	-2.6866480	1.2947358	1.2135190
C	-3.0327055	3.5209312	-0.7409344
H	-3.9697071	3.3283468	-0.1845872
O	-3.0769913	3.9234507	-1.9088508
C	-1.7636446	3.2594851	0.0207797
H	-1.7308035	2.2128955	0.3518666
H	-0.8927584	3.4750254	-0.6018570
H	-1.7323854	3.8794994	0.9265493
C	2.4424814	3.6440800	-0.3716344
H	2.8305504	3.5584364	0.6611534
O	2.6118452	2.7207427	-1.1758586
C	1.7252774	4.9264811	-0.6880887
H	2.3929736	5.7828596	-0.5242457
H	1.3778097	4.9247306	-1.7233857
H	0.8700470	5.0575712	-0.0119158
C	1.6908331	3.1889685	-2.1696245
H	0.6219255	3.0343708	-2.4107031
O	2.3911624	2.2332622	-1.8172379
C	2.1858587	4.6016931	-2.3046692
H	1.6095133	5.2680261	-1.6490221
H	3.2457741	4.6614941	-2.0485835
H	2.0336049	4.9585562	-3.3319378
C	4.0063534	-5.5250968	-1.3940441
H	3.0834283	-5.9790261	-1.8023826
O	3.9564675	-4.4346236	-0.8140511
C	5.2643007	-6.3211200	-1.6013932
H	5.4348409	-6.4851925	-2.6737939
H	6.1215258	-5.8009729	-1.1687400
H	5.1636320	-7.3130170	-1.1411546
C	0.4683812	2.8694251	-2.7596813
H	-0.2191722	2.0767176	-3.1110613
O	1.6494647	2.6007694	-2.5129468
C	-0.1402098	4.2363899	-2.6178981
H	-0.9804221	4.2041951	-1.9114608
H	0.6061768	4.9527534	-2.2681739
H	-0.5487250	4.5695845	-3.5811790
C	4.7821856	-2.0298562	-6.2291657
H	4.1700357	-2.5808625	-6.9682512
O	4.2469295	-1.2271809	-5.4563621
C	6.2537019	-2.3350579	-6.2530280
H	6.6696489	-2.1114862	-7.2445171
H	6.7778653	-1.7497673	-5.4945661
H	6.4202553	-3.4055086	-6.0735603
C	-2.7876164	-3.7000901	-0.8067041
H	-3.6855152	-3.0908001	-1.0237895
O	-1.6763527	-3.1631935	-0.7370831
C	-3.0353407	-5.1699866	-0.6140512
H	-3.5019726	-5.5952008	-1.5126582
H	-2.0988046	-5.6913335	-0.4050672
H	-3.7390055	-5.3289760	0.2138326
C	0.9774258	-0.2662039	-6.4221857
H	0.1185970	-0.5808606	-5.7992997
O	2.1285068	-0.3533903	-5.9801187
C	0.6286058	0.2517262	-7.7893548
H	-0.0412016	1.1179565	-7.7053919
H	1.5322183	0.5376417	-8.3318615
H	0.0848436	-0.5154986	-8.3563663
C	5.9741294	-4.4588933	-0.1364834
H	5.0126492	-4.9573104	-0.3639018
O	6.0110248	-3.2366110	0.0442835
C	7.1718743	-5.3645752	-0.0714781
H	7.3008109	-5.8892795	-1.0275679
H	8.0727679	-4.7911871	0.1569806
H	7.0208497	-6.1358662	0.6954084
C	-4.0680641	-1.3354936	1.3090913
H	-3.1828213	-0.8662610	0.8392522
O	-5.1001020	-1.5087785	0.6511535
C	-3.9044820	-1.7230012	2.7520594
H	-3.6522126	-0.8397444	3.3539434
H	-4.8221663	-2.1765490	3.1324891
H	-3.0708712	-2.4294054	2.8611443
C	2.2546168	-2.2547757	-6.3535110
H	1.1565769	-2.1192085	-6.3761574
O	2.9356455	-1.6569488	-5.5127881
C	2.8118442	-3.1887763	-7.3909206
H	2.5532367	-2.8329809	-8.3971902
H	3.8971970	-3.2626022	-7.2953389
H	2.3630843	-4.1850555	-7.2820368
C	-4.7070709	0.8965560	-1.6857153
H	-5.1964068	-0.0928417	-1.6068138
O	-5.2773373	1.9059403	-1.2568193
C	-3.3501118	0.8965350	-2.3320432
H	-3.4166964	0.4895109	-3.3498570
H	-2.9436171	1.9094869	-2.3676431
H	-2.6660188	0.2436789	-1.7738237
C	-2.1379434	4.2247114	-1.3430583
H	-1.3263578	4.9741111	-1.4087225
O	-3.3041573	4.5890264	-1.1553575
C	-1.7087693	2.7924290	-1.4962071
H	-0.9710226	2.5347652	-0.7245944
H	-2.5696234	2.1249994	-1.4184588
H	-1.2159214	2.6476588	-2.4667513
C	-0.0785950	5.4235985	-0.6843393
H	0.6583814	5.8919741	-0.0045800
O	-0.6258036	6.0975515	-1.5643178
C	-0.3382547	3.9622098	-0.4477000
H	-0.7010713	3.8042309	0.5767285
H	-1.0745812	3.5844823	-1.1602462
H	0.5953509	3.3922980	-0.5446240
C	0.1876284	-4.3250640	-2.3552338
H	-0.2299973	-3.6354622	-3.1132715
O	1.3820911	-4.2549493	-2.0448229
C	-0.7873324	-5.3066654	-1.7678768
H	-1.2220941	-5.9281934	-2.5620631
H	-0.2918460	-5.9441884	-1.0325984
H	-1.6202889	-4.7725659	-1.2917101
C	5.0809464	3.7173258	0.4585572
H	4.6488148	4.6052941	0.9579143
O	6.2918878	3.4850431	0.5461807
C	4.1038534	2.8626526	-0.2990054
H	3.6057466	3.4572229	-1.0764516
H	4.6143497	2.0130048	-0.7573379
H	3.3168905	2.5003032	0.3756839
C	6.5744420	-1.9303798	1.1008604
H	6.4350839	-2.5570421	0.1994967
O	6.0988935	-0.7901461	1.1424865
C	7.3582187	-2.5659523	2.2147813
H	8.3594201	-2.8453133	1.8603801
H	7.4461443	-1.8801224	3.0600524
H	6.8674918	-3.4926180	2.5408046
C	1.7512319	4.0579465	-2.2512906
H	0.6531920	4.1935136	-2.2739373
O	2.4322603	4.6557733	-1.4105675
C	2.3084596	3.1239461	-3.2887003
H	2.0498522	3.4797416	-4.2949700
H	3.3938123	3.0501203	-3.1931184
H	1.8596997	2.1276668	-3.1798168
C	5.5348555	-2.3898086	3.3796144
H	4.8120979	-2.0872456	4.1610617
O	5.5026340	-1.8555528	2.2653682
C	6.5112813	-3.4593277	3.7818577
H	5.9729294	-4.3658434	4.0891903
H	7.1833118	-3.6944559	2.9538079
H	7.0968198	-3.1288526	4.6500422
C	4.2531773	4.4290892	0.8655795
H	3.6733979	5.1346626	0.2405956
O	4.8834860	4.8427637	1.8451694
C	4.2039209	2.9909106	0.4316506
H	4.5801209	2.8933388	-0.5954814
H	4.8008227	2.3687297	1.1018565
H	3.1654075	2.6341978	0.4239609
C	5.2725252	2.2465056	-3.8133806
H	5.0426323	1.1649818	-3.8585282
O	6.0867515	2.6730244	-2.9868642
C	4.5369968	3.1052792	-4.8036250
H	3.4529830	3.0015425	-4.6614995
H	4.8237412	4.1527042	-4.6884941
H	4.7556025	2.7730885	-5.8271847
C	2.7072549	2.9871178	3.6473548
H	1.7499716	3.4387347	3.9702073
O	3.7459820	3.2215923	4.2751126
C	2.6284345	2.1050424	2.4329378
H	2.2374314	2.6732106	1.5783337
H	3.6139926	1.7040140	2.1871167
H	1.9276633	1.2786618	2.6113430
C	-0.4160717	3.1142251	-4.9132117
H	-1.3367538	2.5726201	-4.6240900
O	-0.4475334	3.9461473	-5.8269554
C	0.8155960	2.7597299	-4.1280964
H	1.0301757	1.6871717	-4.2261842
H	1.6723465	3.3390563	-4.4787190
H	0.6511946	2.9535876	-3.0598246
C	8.0199976	-3.8592522	-2.2518531
H	8.9115788	-4.2559395	-1.7300246
O	7.7779816	-4.2034047	-3.4141781
C	7.1729974	-2.9091014	-1.4525520
H	7.7713236	-2.0439850	-1.1369151
H	6.3191160	-2.5692979	-2.0424646
H	6.8172188	-3.3994337	-0.5366868
