353
Analysis from 47 .xyz files
C	0.0000000	0.0000000	0.0000000
O	-1.2244801	0.0000000	0.0000000
O	0.6872451	1.2061941	0.0000000
H	1.6592151	1.0934921	0.0237522
N	0.4452253	-2.2653116	0.9576502
C	-0.3140401	-2.8084916	3.1867202
H	-0.9656165	-3.6058569	2.8526030
H	-0.2634491	-2.6373188	4.2543786
C	0.4015531	-2.0355816	2.3396608
C	1.2664171	-0.9022272	2.8505965
H	0.9403092	0.0764179	2.4768192
H	1.2219070	-0.8631372	3.9408074
H	2.3168648	-1.0390460	2.5600804
C	0.5091381	-3.4917713	-1.0437824
C	-0.1554472	-3.4559521	0.3399369
C	0.8630431	-1.2735307	-0.0371636
C	0.6524041	-1.9981723	-1.4070108
H	1.4932067	-3.9688808	-0.9725732
H	-0.0822484	-4.0386318	-1.7839570
H	0.0759424	-4.3382517	0.9457748
H	-1.2505715	-3.3698761	0.2649816
H	1.9213816	-1.0043616	0.1040403
H	-0.2747811	-1.6364272	-1.8628617
H	1.4746036	-1.7997447	-2.1001233
C	3.5004814	3.6638487	-0.6520790
H	3.6113518	3.4944696	-1.7400135
O	3.2880228	2.7101511	0.1051094
C	3.6265278	5.0931574	-0.2045669
H	2.8705673	5.7133815	-0.7044596
H	3.5043846	5.1669442	0.8781211
H	4.6070422	5.4942349	-0.4936025
C	4.3899848	1.7109071	-2.0688959
H	4.6653071	0.7713782	-2.5847119
O	3.4145033	1.7384171	-1.3101528
C	5.2712963	2.8921467	-2.3639230
H	5.2690821	3.1051455	-3.4412687
H	4.9280869	3.7717021	-1.8151369
H	6.3098781	2.6667125	-2.0876250
C	5.1924684	0.0942012	-0.1829957
H	5.9289133	-0.6672476	-0.5030381
O	4.0873202	-0.2547476	0.2469979
C	5.6414194	1.5225836	-0.3143168
H	5.8975940	1.7433068	-1.3591625
H	4.8561973	2.2026264	0.0226472
H	6.5518402	1.6880950	0.2769134
C	2.9989254	1.8105059	-2.0369729
H	2.8018069	2.5981529	-1.2850823
O	3.3043945	0.6692216	-1.6734195
C	2.8665071	2.2390366	-3.4715128
H	3.5577058	3.0655572	-3.6840098
H	3.0774003	1.4027185	-4.1413434
H	1.8529935	2.6169575	-3.6606666
C	4.9267916	0.2883718	-1.0586880
H	5.2361110	1.1370426	-0.4194211
O	3.9925908	-0.4420534	-0.7097466
C	5.7117324	0.1166014	-2.3289010
H	6.7759650	-0.0264176	-2.0986809
H	5.3402399	-0.7402272	-2.8949528
H	5.6395465	1.0240588	-2.9430050
C	-2.1605378	-0.3749870	-4.3141981
H	-2.2906845	-0.6010154	-5.3896310
O	-1.0831739	-0.6130434	-3.7568575
C	-3.3590459	0.2196261	-3.6292956
H	-4.2174616	-0.4602481	-3.7126045
H	-3.1422238	0.4097440	-2.5760055
H	-3.6486477	1.1574508	-4.1216665
C	3.9869059	-0.6525552	-3.2185437
H	4.7093104	-1.2843482	-2.6675879
O	3.0082083	-0.1756374	-2.6331271
C	4.2935878	-0.4398777	-4.6744944
H	4.3382447	-1.4053764	-5.1959008
H	3.5326809	0.1922739	-5.1370763
H	5.2807242	0.0275359	-4.7880708
C	-3.7153357	-0.8662041	1.1278705
H	-3.4301988	-0.6408759	0.0826399
O	-3.5330149	-1.9982392	1.5896799
C	-4.3157618	0.2784606	1.8948838
H	-5.2194903	0.6406443	1.3868044
H	-4.5657072	-0.0319660	2.9116136
H	-3.6120759	1.1207813	1.9285775
C	-3.5173263	-1.9481695	-1.7843004
H	-4.4007759	-2.0657228	-1.1283423
O	-2.4506152	-2.5001932	-1.4920517
C	-3.7272239	-1.0955852	-3.0041861
H	-4.0444904	-0.0863668	-2.7094538
H	-2.8081397	-1.0347734	-3.5908400
H	-4.5329044	-1.5130819	-3.6225619
C	4.3921678	-2.6369508	-3.2913998
H	4.9307010	-3.1378756	-2.4645750
O	3.5680377	-1.7489090	-3.0460356
C	4.7407374	-3.1153078	-4.6729757
H	4.5373020	-4.1907663	-4.7626963
H	4.1651934	-2.5690039	-5.4232276
H	5.8141850	-2.9791873	-4.8600448
C	4.8144521	-1.3175169	2.4251696
H	4.2725926	-2.2699892	2.5793370
O	4.3524405	-0.4573744	1.6670716
C	6.1020543	-1.1759811	3.1874861
H	6.7926257	-1.9855172	2.9158072
H	6.5670142	-0.2106146	2.9766384
H	5.9146264	-1.2678091	4.2655640
C	-4.1914775	3.1921923	-0.5532880
H	-4.1981386	3.7249952	0.4165881
O	-4.4160026	3.8089755	-1.6007513
C	-3.8979864	1.7199414	-0.4796804
H	-4.6393539	1.2185053	0.1567022
H	-3.9114681	1.2770745	-1.4778106
H	-2.9170699	1.5532440	-0.0151072
C	-3.0247990	3.4790015	1.6212312
H	-2.3395281	3.2599676	2.4620706
O	-3.9818448	4.2440436	1.7848957
C	-2.6975231	2.7918223	0.3251782
H	-2.6987256	1.7025041	0.4645751
H	-3.4218406	3.0640851	-0.4454149
H	-1.6869891	3.0680390	-0.0039703
C	4.9047078	-2.9819250	2.2416413
H	5.3746591	-3.9680524	2.0647753
O	4.6369010	-2.2429952	1.2875584
C	4.6362004	-2.6430212	3.6811295
H	5.5730414	-2.6592718	4.2539398
H	4.1736233	-1.6570809	3.7618806
H	3.9771174	-3.3978742	4.1301507
C	-2.1276765	-1.6315477	-4.3620402
H	-2.1489184	-0.8428260	-5.1379590
O	-1.0477377	-2.0958717	-3.9797478
C	-3.4704172	-2.0633514	-3.8427414
H	-4.0904299	-2.4407387	-4.6668834
H	-3.3550856	-2.8406643	-3.0844144
H	-4.0030454	-1.2045863	-3.4130405
C	-3.6733998	-0.5014301	-2.2725181
H	-2.7607558	-0.2885552	-1.6840045
O	-4.2202242	-1.6069502	-2.1899316
C	-4.1609200	0.6257113	-3.1390944
H	-3.3795835	0.9180357	-3.8533118
H	-5.0614219	0.3292656	-3.6811213
H	-4.3746486	1.5097873	-2.5238357
C	-4.3584716	-3.0431438	1.1734460
H	-4.3712973	-2.1468314	1.8223239
O	-3.3497125	-3.7556267	1.1206705
C	-5.6217887	-3.2993353	0.4004816
H	-5.8509960	-2.4400860	-0.2438796
H	-5.5206711	-4.1992360	-0.2098715
H	-6.4692600	-3.4138200	1.0893205
C	-4.0385814	-2.3336926	-1.3035752
H	-4.5923180	-2.0293178	-0.3951069
O	-2.8467784	-2.6522661	-1.2252890
C	-4.8339827	-2.3234612	-2.5788439
H	-5.2318062	-1.3174112	-2.7676472
H	-4.2116616	-2.6359492	-3.4200600
H	-5.6985830	-2.9945662	-2.4899755
C	-2.6973149	-4.5975641	-3.2651064
H	-2.3903026	-3.6698017	-3.7843204
O	-1.8803983	-5.2242717	-2.5810764
C	-4.1312252	-5.0033092	-3.4609386
H	-4.3397218	-5.1495363	-4.5292054
H	-4.3456638	-5.9248176	-2.9155810
H	-4.8003516	-4.2047806	-3.1139005
C	-3.5055115	-4.1561678	2.0559983
H	-3.2903770	-3.0833917	1.8903134
O	-2.5921179	-4.9872058	2.0003195
C	-4.9429088	-4.4903601	2.3410992
H	-5.5794476	-4.1602756	1.5092884
H	-5.0629708	-5.5653890	2.4910154
H	-5.2854741	-3.9524677	3.2350422
C	4.5310828	-3.0336437	-0.9436352
H	5.3749187	-3.5415614	-0.4391121
O	3.6802247	-2.4344179	-0.2765661
C	4.5183779	-3.1364982	-2.4430809
H	4.4873561	-4.1907827	-2.7489709
H	3.6554056	-2.6091801	-2.8551382
H	5.4425222	-2.7131133	-2.8584313
C	4.2003987	0.8626418	3.0091790
H	3.5712347	0.6737273	3.8997107
O	4.3315810	-0.0125276	2.1461135
C	4.8483627	2.2175947	2.9515297
H	5.4859904	2.3689944	3.8327538
H	5.4472373	2.3166394	2.0437214
H	4.0822034	3.0038632	2.9759255
C	-2.2277363	-1.4367004	-4.1752900
H	-2.7616027	-2.3676646	-3.9053355
O	-1.0032267	-1.3587493	-4.0252501
C	-3.0903609	-0.3305460	-4.7150858
H	-3.8588594	-0.0578525	-3.9794941
H	-2.4836364	0.5454580	-4.9539982
H	-3.6196802	-0.6696535	-5.6154415
C	4.2587478	-1.5081976	-1.9988515
H	4.3544719	-0.4495364	-2.3065137
O	3.8486046	-1.7900654	-0.8673280
C	4.6552442	-2.5209103	-3.0362914
H	5.7009705	-2.3667168	-3.3341636
H	4.5294615	-3.5342224	-2.6490524
H	4.0459695	-2.3931617	-3.9408785
C	0.5970949	-7.3943027	2.5939145
H	1.5729379	-7.5535316	3.0908646
O	0.4310406	-6.4193303	1.8523844
C	-0.4553652	-8.4252418	2.8915224
H	-0.6484972	-8.4666901	3.9718136
H	-1.3810653	-8.1904568	2.3618698
H	-0.1025495	-9.4217156	2.5942438
C	0.7120582	-7.2710831	1.1027356
H	-0.3667587	-7.2118264	1.3419546
O	1.3291356	-6.2540168	0.7668731
C	1.3255412	-8.6382508	1.2192216
H	0.8098675	-9.3416010	0.5518192
H	2.3873438	-8.6036132	0.9663336
H	1.2016836	-9.0218988	2.2406357
C	0.0176666	0.9875324	5.7594302
H	0.8725878	1.6598203	5.5551709
O	0.2034236	-0.2266813	5.8979636
C	-1.3246493	1.6579155	5.8480438
H	-1.5468936	2.1834710	4.9097231
H	-2.1063741	0.9229106	6.0511471
H	-1.3161135	2.4166222	6.6418351
C	0.8904045	-3.6326384	6.8107258
H	1.9333964	-3.9542025	6.9933383
O	0.6596245	-2.5062446	6.3568649
C	-0.1668467	-4.6455749	7.1502217
H	-0.0975963	-4.9227003	8.2106239
H	-1.1610021	-4.2458137	6.9394541
H	-0.0084375	-5.5651766	6.5713846
C	-0.1284597	4.2804955	-3.0846320
H	-1.2339764	4.2684297	-3.1322788
O	0.4983892	5.2675099	-3.4857246
C	0.5071890	3.0437768	-2.5140571
H	0.2212237	2.1645191	-3.1066586
H	1.5947415	3.1423794	-2.5048962
H	0.1437479	2.8693376	-1.4926390
C	5.2779458	-2.3798469	2.4981176
H	5.0271020	-3.4421287	2.6803745
O	4.5408105	-1.4861982	2.9294360
C	6.5379206	-2.1386809	1.7149313
H	6.4710532	-2.6255624	0.7328305
H	6.7070148	-1.0678916	1.5830444
H	7.3961458	-2.5868527	2.2330090
C	-0.2094604	-3.7987445	7.2733532
H	-0.0935334	-4.0515201	8.3444500
O	0.4667873	-2.8926065	6.7737381
C	-1.2175551	-4.6212563	6.5208258
H	-2.2084251	-4.5199811	6.9833913
H	-1.2658793	-4.3052394	5.4766156
H	-0.9509784	-5.6852475	6.5725233
C	4.8989022	-4.0234665	0.7241445
H	5.3424052	-5.0161897	0.9300294
O	4.8203839	-3.6086800	-0.4376640
C	4.4244588	-3.2647490	1.9317576
H	5.2578335	-3.1054176	2.6290000
H	4.0033124	-2.3013129	1.6367943
H	3.6672202	-3.8489896	2.4712628
C	-0.3135214	-2.9316623	7.6308022
H	-0.2127992	-3.9256753	8.1065921
O	0.1675678	-2.7293518	6.5102506
C	-1.0542991	-1.9016855	8.4367017
H	-0.5540468	-1.7461230	9.4018933
H	-1.1059298	-0.9558123	7.8933464
H	-2.0697461	-2.2553210	8.6594626
C	-2.1726752	0.3175395	3.8295386
H	-2.4424299	-0.7555267	3.8109892
O	-1.0728788	0.6875251	3.4034277
C	-3.2189276	1.2370926	4.3942121
H	-3.4578350	0.9484930	5.4265300
H	-2.8698930	2.2716607	4.3737094
H	-4.1492723	1.1498994	3.8174370
C	-0.1074913	4.7457374	-2.0589707
H	0.3035482	4.6212207	-3.0788358
O	0.0791925	5.7992770	-1.4399267
C	-0.8764049	3.5701693	-1.5242843
H	-0.2368577	2.6776011	-1.5056202
H	-1.2437835	3.7796369	-0.5174411
H	-1.7223967	3.3400395	-2.1854586
C	-2.8325252	-5.7965028	1.4800160
H	-3.3529963	-4.8201676	1.4585164
O	-1.6224614	-5.8592328	1.2354290
C	-3.6941603	-6.9806967	1.8181694
H	-4.5142276	-7.0702388	1.0932427
H	-3.1012090	-7.8977482	1.8167662
H	-4.1567479	-6.8417422	2.8043325
C	-2.3993963	-0.0978925	6.5121175
H	-3.0536861	-0.9849997	6.6097309
O	-2.1184540	0.5775993	7.5085081
C	-1.9089430	0.1933303	5.1215338
H	-2.7604825	0.3468118	4.4452418
H	-1.2731185	1.0811901	5.1185298
H	-1.3458469	-0.6652559	4.7322192
C	1.9472506	5.3715605	0.9019220
H	1.2195013	5.8997209	0.2569333
O	2.9800435	5.9435397	1.2682425
C	1.5788499	3.9621648	1.2720071
H	1.4530581	3.3544763	0.3659508
H	2.3495394	3.5196937	1.9066989
H	0.6151715	3.9495951	1.7982952
C	0.0280021	3.4296843	2.9614447
H	-0.9159296	3.8541893	3.3530715
O	0.1639916	2.2047865	2.8658175
C	1.0773025	4.4343585	2.5758590
H	1.3403217	5.0567700	3.4415794
H	1.9705415	3.9297277	2.2016284
H	0.6861440	5.1120932	1.8054798
C	-4.8044582	-1.9629502	2.2331809
H	-5.6553187	-2.2678333	1.5946941
O	-5.0089549	-1.5275134	3.3718591
C	-3.4436232	-2.1207804	1.6148802
H	-3.3782780	-1.5315347	0.6904527
H	-2.6673170	-1.7977780	2.3117266
H	-3.2753810	-3.1691796	1.3349387
C	-5.2913884	-3.5368905	-0.9537381
H	-5.8873304	-2.6174952	-0.7983412
O	-5.5431582	-4.2852437	-1.9048383
C	-4.2005497	-3.7774596	0.0518839
H	-4.6254834	-3.8376489	1.0627526
H	-3.6663294	-4.7019164	-0.1773867
H	-3.4963035	-2.9349356	0.0538461
C	-0.0719263	4.3583821	2.4386091
H	0.8137108	4.6412345	1.8384221
O	-0.7753364	5.2335038	2.9557052
C	-0.3258110	2.8818907	2.5594140
H	0.5418121	2.3855663	3.0143199
H	-1.2149450	2.6952006	3.1653548
H	-0.4581599	2.4387970	1.5634397
C	-3.1764281	0.5082016	2.0392186
H	-2.8254111	1.2639798	1.3110915
O	-4.2052921	-0.1387395	1.8135676
C	-2.3253647	0.3507613	3.2680316
H	-2.2572577	1.3062494	3.8051080
H	-2.7439720	-0.4121616	3.9277994
H	-1.3014541	0.0726272	2.9850795
C	-1.3438294	1.0618451	6.1331464
H	-0.5404573	1.4947828	5.5072542
O	-1.5883024	1.5406505	7.2462459
C	-2.0735312	-0.1060762	5.5310058
H	-1.3681346	-0.9176644	5.3078760
H	-2.8452948	-0.4678395	6.2137101
H	-2.5321388	0.1863560	4.5770794
C	2.6624233	5.3369766	-0.2858068
H	2.4712725	5.7642040	0.7169498
O	3.5710532	5.7913053	-0.9900719
C	1.7569680	4.2075166	-0.6902185
H	0.7102399	4.5395373	-0.6772020
H	2.0158742	3.8487200	-1.6886219
H	1.8368311	3.3829521	0.0305647
C	-1.2307995	0.2942888	6.1670891
H	-0.1588186	0.0329970	6.2517434
O	-1.8603948	0.6596002	7.1661734
C	-1.8195564	0.1689888	4.7898660
H	-1.7106695	-0.8610812	4.4249740
H	-2.8760104	0.4453862	4.7991438
H	-1.2755626	0.8134409	4.0866125
C	-3.1497743	-2.1384042	-5.0997554
H	-3.6624870	-1.1808867	-5.3115786
O	-3.0466263	-2.9951805	-5.9848016
C	-2.6169949	-2.2907498	-3.7026101
H	-3.4338234	-2.1963548	-2.9746488
H	-2.1290604	-3.2604025	-3.5831517
H	-1.9013466	-1.4877028	-3.4817562
