38
Analysis from 2 .xyz files
C	0.0000000	0.0000000	0.0000000
O	-1.2224241	0.0000000	0.0000000
O	0.6888640	1.2091125	0.0000000
H	1.6618541	1.0986492	0.0170865
N	0.2228163	-2.4952785	0.2051900
C	-1.2832719	-3.8880249	1.4812338
H	-1.5603657	-4.5006365	0.6328179
H	-1.7339287	-4.1436476	2.4315400
C	-0.4479571	-2.8287498	1.3904760
C	-0.1454040	-1.9642028	2.5952721
H	-0.5315449	-0.9456967	2.4720823
H	-0.6189660	-2.3886675	3.4829189
H	0.9333541	-1.8987908	2.7893924
C	1.4256107	-2.9047746	-1.7756197
C	0.1962160	-3.3662059	-0.9772719
C	0.9088215	-1.2349815	-0.0443575
C	1.4871363	-1.3889422	-1.4950005
H	2.3246183	-3.4016066	-1.3936290
H	1.3444365	-3.1226496	-2.8445764
H	0.2672497	-4.4127660	-0.6630161
H	-0.7346079	-3.2484517	-1.5540834
H	1.7231084	-1.0765300	0.6817815
H	0.8496753	-0.8507123	-2.2057205
H	2.4984409	-0.9793469	-1.5771237
C	3.0369400	0.8954344	3.0634988
H	2.0685497	0.9379484	3.5973487
O	3.0635284	0.8884040	1.8276769
C	4.2567048	0.8493133	3.9404963
H	4.2149288	-0.0281582	4.5995454
H	5.1631696	0.8091558	3.3328075
H	4.2874625	1.7332339	4.5913047
C	3.7953314	-0.6477772	3.0917951
H	3.1019558	-0.8279890	3.9352030
O	3.3679175	-0.1945069	2.0241456
C	5.2351536	-0.9896316	3.3547133
H	5.3281237	-2.0498574	3.6254982
H	5.8447337	-0.7811576	2.4729382
H	5.6109141	-0.4103833	4.2085803
