38
Analysis from 2 .xyz files
C	0.0000000	0.0000000	0.0000000
O	-1.2229158	0.0000000	0.0000000
O	0.6879517	1.2099064	0.0000000
H	1.6609175	1.1002612	0.0231209
N	0.1872637	-2.4895400	0.1945721
C	-0.9301957	-4.1097156	1.5901812
H	-1.1974252	-4.7527699	0.7616377
H	-1.2438710	-4.4316137	2.5747065
C	-0.2489365	-2.9502959	1.4417796
C	0.0950209	-2.0856973	2.6346891
H	-0.3485041	-1.0862175	2.5496304
H	-0.2901631	-2.5436037	3.5478478
H	1.1798117	-1.9649822	2.7569637
C	0.3642634	-2.2762540	-2.1705586
C	-0.1536230	-3.2000280	-1.0502526
C	0.9015197	-1.2475475	-0.0452303
C	1.4669616	-1.4428264	-1.4831429
H	0.7406541	-2.8345195	-3.0322326
H	-0.4396946	-1.6189948	-2.5189463
H	0.3321250	-4.1873041	-1.0676317
H	-1.2367155	-3.3618384	-1.1173427
H	1.7144574	-1.1047802	0.6799512
H	1.6690791	-0.4962649	-1.9942161
H	2.4029313	-2.0089570	-1.4223505
C	4.7654130	1.5418624	0.3175100
H	4.6359613	1.9706463	1.3294238
O	3.9274414	0.7526410	-0.1329845
C	5.9962088	1.9882000	-0.4207328
H	6.8956442	1.7305450	0.1543121
H	6.0428912	1.5182131	-1.4053696
H	5.9939162	3.0805543	-0.5328502
C	4.7654130	1.5418625	0.3175101
H	4.6359611	1.9706465	1.3294238
O	3.9274414	0.7526410	-0.1329844
C	5.9962088	1.9882001	-0.4207326
H	6.8956442	1.7305451	0.1543123
H	6.0428912	1.5182131	-1.4053695
H	5.9939161	3.0805544	-0.5328502
