283
Analysis from 37 .xyz files
C	0.0000000	0.0000000	0.0000000
O	-1.2311991	0.0000000	0.0000000
O	0.7396225	1.1695535	0.0000000
H	0.1447986	1.9511768	-0.0088207
N	0.2532936	-2.4539154	0.3298483
C	-0.7252466	-3.9964097	1.9073732
H	-1.0813555	-4.6743499	1.1424005
H	-0.9317874	-4.2710825	2.9337008
C	-0.0565097	-2.8520263	1.6330150
C	0.4177300	-1.9387152	2.7424131
H	-0.0141352	-0.9337719	2.6551692
H	0.1200390	-2.3448945	3.7111730
H	1.5103631	-1.8317494	2.7458458
C	0.2371500	-2.3791617	-2.0518538
C	-0.1851005	-3.2349046	-0.8393478
C	0.9228882	-1.2152822	-0.0405240
C	1.3739310	-1.4897828	-1.5035982
H	0.5575697	-2.9896403	-2.9009510
H	-0.6012878	-1.7564464	-2.3825741
H	0.3020003	-4.2216551	-0.8368944
H	-1.2696420	-3.4010832	-0.8102593
H	1.7828740	-0.9969717	0.5986825
H	1.5271585	-0.5703038	-2.0745387
H	2.3212287	-2.0393820	-1.4771732
C	-2.8771267	2.8066672	-0.4347667
H	-2.9680151	2.7986366	0.6680740
O	-1.7602844	2.8127827	-0.9645196
C	-4.1765386	2.8093133	-1.1901473
H	-4.7737102	3.6876965	-0.9110844
H	-3.9929279	2.8171956	-2.2666238
H	-4.7701443	1.9248391	-0.9234063
C	-2.0894881	3.9778268	0.5864571
H	-1.8537871	3.7754568	1.6485655
O	-1.2438331	3.7599281	-0.2884143
C	-3.4675545	4.5162598	0.3216916
H	-3.6168133	5.4570057	0.8682867
H	-3.6128875	4.6857834	-0.7472878
H	-4.2252970	3.8120625	0.6901284
C	-2.3763725	2.1319822	1.7147503
H	-2.8374602	1.2484132	1.2338274
O	-1.6624252	2.8950059	1.0543821
C	-2.6853871	2.3075519	3.1751487
H	-2.3543649	1.4257115	3.7397978
H	-2.1919027	3.2000233	3.5657184
H	-3.7701505	2.3904401	3.3242495
C	0.0118666	5.3892324	0.0254895
H	0.7483598	5.6474899	0.8100045
O	-0.2624987	4.2054886	-0.2014168
C	-0.5933376	6.5568839	-0.7021066
H	0.1945251	7.1505484	-1.1846847
H	-1.3053165	6.2111054	-1.4545028
H	-1.1012741	7.2224080	0.0084505
C	-0.2145818	3.8604701	2.1555526
H	-0.5574122	2.8650747	2.4964903
O	0.1870079	4.0141685	0.9966243
C	-0.2803469	4.9539102	3.1846987
H	0.3286235	4.6869098	4.0587197
H	0.0750907	5.8968548	2.7638705
H	-1.3116518	5.0746138	3.5419861
C	-1.9867484	3.3172406	-1.8278000
H	-1.2106797	3.1368302	-2.5957534
O	-1.7348042	3.1198871	-0.6338203
C	-3.3109772	3.8011610	-2.3486813
H	-3.7258100	3.0738266	-3.0592765
H	-4.0132033	3.9522926	-1.5261155
H	-3.1791556	4.7421616	-2.8990941
C	-1.3002179	3.6777786	2.3687526
H	-2.3632696	3.7389170	2.0674784
O	-0.4171811	3.5796226	1.5093206
C	-1.0445915	3.7231707	3.8491825
H	-1.5674853	2.8963365	4.3481556
H	0.0259855	3.6575671	4.0544571
H	-1.4454214	4.6534120	4.2732107
C	1.5540187	4.6843696	-0.1686599
H	1.7256261	4.4542298	-1.2373832
O	0.6141934	4.1559451	0.4359127
C	2.5243398	5.6527442	0.4476239
H	2.5001542	6.6077478	-0.0940680
H	2.2811143	5.8207630	1.4989029
H	3.5486847	5.2662727	0.3629433
C	0.0965148	4.3442309	1.9465743
H	0.9500827	4.8010520	1.4105529
O	-0.6941172	3.6110523	1.3421222
C	-0.0052033	4.6831858	3.4073416
H	-0.0893061	5.7703741	3.5377080
H	-0.8719327	4.1917348	3.8543685
H	0.9075392	4.3708174	3.9318799
C	-2.8627770	3.0463134	1.4687157
H	-3.3021218	2.3886949	2.2427294
O	-1.7661881	2.7694160	0.9698842
C	-3.6854383	4.2488813	1.0997490
H	-3.8628115	4.8715995	1.9867708
H	-3.1783650	4.8382790	0.3328957
H	-4.6708291	3.9337551	0.7316268
C	-0.7105522	2.8946737	-3.0086819
H	-1.7001428	2.4595070	-3.2451630
O	-0.4319021	3.2045099	-1.8449089
C	0.2168332	3.0648477	-4.1791841
H	-0.2456010	3.7121376	-4.9362952
H	1.1654299	3.4983811	-3.8554715
H	0.3994177	2.0948383	-4.6603887
C	-3.0519406	2.3099950	0.0778853
H	-2.9084061	2.1290053	-1.0043454
O	-2.5561268	3.3094131	0.6101862
C	-3.8668185	1.2761949	0.8033573
H	-3.3988905	0.2877822	0.7027063
H	-3.9571134	1.5336232	1.8607854
H	-4.8664386	1.2006648	0.3551742
C	-1.2209564	4.2805535	-1.0863796
H	-1.6919520	4.3387375	-0.0866994
O	-0.0479212	3.9069937	-1.1979758
C	-2.0996457	4.6792254	-2.2387874
H	-2.4481972	5.7124071	-2.1080426
H	-1.5562397	4.5917244	-3.1819896
H	-2.9949523	4.0441126	-2.2683015
C	0.9184568	3.8012538	-2.3014806
H	0.2789051	3.7045827	-3.1993731
O	0.4038528	3.9070989	-1.1825562
C	2.3992374	3.7920999	-2.5589352
H	2.6699204	4.6136708	-3.2355438
H	2.9508336	3.8915577	-1.6216910
H	2.6894525	2.8595502	-3.0608711
C	-0.8116844	4.6325818	0.0319928
H	-1.2463825	4.5432470	1.0457185
O	-1.0275126	3.7576810	-0.8141625
C	0.0248494	5.8582950	-0.2065783
H	0.8609067	5.8891578	0.5048306
H	0.4114804	5.8644153	-1.2278793
H	-0.5727354	6.7629867	-0.0326859
C	-0.5652333	2.8113640	-3.0607656
H	-0.0059302	3.7248617	-3.3387676
O	-0.9562298	2.6536580	-1.8987576
C	-0.7930954	1.8290111	-4.1752788
H	0.1685527	1.5018028	-4.5926688
H	-1.3499788	0.9622791	-3.8130175
H	-1.3470779	2.3080656	-4.9934619
C	0.6166283	4.1320429	-2.1038115
H	1.3926969	3.9516325	-2.8717649
O	0.8685726	3.9346894	-0.9098316
C	-0.7076006	4.6159630	-2.6246928
H	-1.1224334	3.8886288	-3.3352879
H	-1.4098266	4.7670946	-1.8021269
H	-0.5757790	5.5569637	-3.1751055
C	1.4999861	3.7547701	1.8737827
H	0.7662380	4.0512903	2.6472635
O	1.2167766	3.8663449	0.6757195
C	2.8090968	3.2293722	2.3926895
H	2.6380076	2.3491845	3.0267598
H	3.4691536	2.9625460	1.5646162
H	3.2956174	3.9848409	3.0238615
C	0.8824348	3.4128872	-2.9422683
H	0.1786236	4.0157667	-3.5470568
O	0.7583303	3.3632526	-1.7133881
C	1.9509312	2.6954952	-3.7186330
H	2.5530171	3.4166707	-4.2873558
H	2.5969550	2.1281228	-3.0453437
H	1.4941556	2.0167256	-4.4510545
C	4.2038027	-2.7812974	1.7731045
H	3.8116385	-2.5511942	2.7819864
O	3.6982668	-2.2531122	0.7763769
C	5.3528483	-3.7493213	1.7318467
H	5.0584852	-4.7043776	2.1871100
H	5.6743794	-3.9173271	0.7018135
H	6.1938013	-3.3625411	2.3226194
C	4.7659284	-0.7854210	1.8232530
H	4.2885266	-0.6699616	2.8148878
O	4.0688262	-0.8708838	0.8060231
C	6.2683746	-0.8264483	1.8303355
H	6.6204265	-1.6584943	2.4546800
H	6.6524500	-0.9416451	0.8145637
H	6.6691516	0.0944781	2.2742789
C	-4.2262263	1.0052388	2.9899805
H	-3.4038437	1.4361211	3.5921517
O	-5.2858957	0.6753900	3.5343265
C	-3.9462104	0.8660027	1.5198504
H	-3.0653716	0.2294339	1.3618948
H	-4.8077591	0.4346997	1.0057606
H	-3.7103352	1.8467346	1.0858674
C	-5.2369178	-0.7096044	1.3364696
H	-5.6198154	-1.7210927	1.1022398
O	-6.0187879	0.2436405	1.4259984
C	-3.7492437	-0.6098003	1.5260553
H	-3.2295839	-0.9475256	0.6194450
H	-3.4609164	0.4188048	1.7528057
H	-3.4272263	-1.2716079	2.3409963
C	-1.3437757	2.4466108	3.1766520
H	-1.7673260	2.1656132	2.1936827
O	-0.7140123	3.5029974	3.3009811
C	-1.5945652	1.4699812	4.2912717
H	-1.1794530	0.4867825	4.0323334
H	-1.1435771	1.8258100	5.2200194
H	-2.6741993	1.3302208	4.4350443
C	-1.5485179	-4.9521847	6.0872978
H	-1.6064854	-4.3526093	7.0155930
O	-0.7527461	-4.6377842	5.1951590
C	-2.4831737	-6.1271933	6.0176459
H	-3.5232277	-5.7887189	6.1164870
H	-2.3585801	-6.6592585	5.0721514
H	-2.2918986	-6.8119316	6.8545214
C	-0.1512408	-5.4098336	5.2454638
H	-1.1767833	-5.5236550	4.8456013
O	0.3067676	-4.2828847	5.4650696
C	0.5951177	-6.6923835	5.4844048
H	0.6769498	-7.2615478	4.5487754
H	1.5930260	-6.4864743	5.8772879
H	0.0428009	-7.3243643	6.1924725
C	-5.1266549	-1.9544501	0.8028135
H	-5.7063574	-1.7473220	-0.1167657
O	-5.4532310	-1.4287525	1.8728614
C	-3.9619095	-2.8895616	0.6354442
H	-3.2571854	-2.4863058	-0.1040121
H	-3.4496584	-3.0365776	1.5886294
H	-4.3073816	-3.8575726	0.2488992
C	1.0274144	1.5607155	-4.0011179
H	1.4538691	1.6339552	-5.0196244
O	0.3051928	0.6040972	-3.6989764
C	1.3917566	2.6796843	-3.0661091
H	1.0641556	3.6415697	-3.4826434
H	0.9298748	2.5266389	-2.0884491
H	2.4825542	2.7379784	-2.9539668
C	-0.0273890	-7.0712396	1.0316975
H	-0.6961748	-6.8167312	1.8758148
O	-0.2156903	-6.5681517	-0.0816117
C	1.0772107	-8.0390100	1.3516318
H	0.6564003	-8.9828325	1.7233368
H	1.6850448	-8.2320197	0.4651434
H	1.7108908	-7.6371069	2.1533404
C	0.3320319	-1.0498514	6.8990430
H	1.3568381	-0.9901482	7.3123112
O	0.0931373	-1.7910984	5.9390980
C	-0.6913809	-0.1866235	7.5820817
H	-0.3876454	0.8677131	7.5355419
H	-1.6693161	-0.3080240	7.1114633
H	-0.7583900	-0.4504119	8.6459138
C	-3.1075835	-0.8648742	-3.8054079
H	-3.8339243	-0.3819400	-3.1243892
O	-2.5989758	-1.9495534	-3.5007746
C	-2.8127135	-0.1137367	-5.0734466
H	-2.4178301	0.8836771	-4.8383302
H	-2.0897320	-0.6605992	-5.6823932
H	-3.7373603	0.0383914	-5.6458964
C	0.2345635	-8.3525478	2.0542605
H	1.0794270	-8.0462005	2.6999695
O	0.4188677	-9.1537494	1.1311571
C	-1.0928867	-7.7325090	2.3896792
H	-1.0241932	-6.6380667	2.3303148
H	-1.8654013	-8.0894842	1.7053059
H	-1.3734603	-7.9768154	3.4228327
C	2.8224822	-5.0332968	-1.1585965
H	2.4058935	-4.9567559	-0.1362569
O	2.1309944	-4.7212143	-2.1345377
C	4.2390840	-5.5283559	-1.2436480
H	4.3186569	-6.5250267	-0.7893769
H	4.5669272	-5.5720736	-2.2844094
H	4.9051645	-4.8665334	-0.6743140
C	-2.0456883	-8.7514170	-0.0955130
H	-2.6523423	-8.8805905	0.8209301
O	-1.4726899	-9.7228651	-0.6014514
C	-1.9874419	-7.3516288	-0.6398275
H	-1.5760001	-6.6694090	0.1160420
H	-1.3705178	-7.3169576	-1.5402604
H	-2.9995252	-6.9942995	-0.8718107
C	-1.5055503	-6.4040732	6.6546345
H	-2.5496019	-6.0426426	6.5921281
O	-1.2435635	-7.4361262	7.2825211
C	-0.4865219	-5.5624314	5.9388844
H	-0.4959386	-4.5387289	6.3363658
H	0.5113687	-5.9912119	6.0526318
H	-0.7380385	-5.4905803	4.8723994
C	-3.3904956	-5.4348333	5.4532967
H	-3.2488612	-4.3373398	5.4588329
O	-4.0310020	-5.9816084	6.3581728
C	-2.7611404	-6.1616956	4.2980213
H	-1.6785690	-5.9778682	4.2808887
H	-2.9501402	-7.2346665	4.3727823
H	-3.1621633	-5.7814840	3.3491096
C	4.2053492	-4.9228593	3.8527176
H	4.3765167	-5.7071497	3.0910266
O	4.4700808	-5.1435717	5.0398213
C	3.6478834	-3.6276223	3.3324571
H	2.6863223	-3.8042673	2.8322135
H	3.5116317	-2.9148569	4.1485316
H	4.3234558	-3.2013554	2.5789907
