276
Analysis from 36 .xyz files
C	0.0000000	0.0000000	0.0000000
O	-1.2319610	0.0000000	0.0000000
O	0.7389884	1.1676912	0.0000000
H	0.1439303	1.9494403	0.0084001
N	0.3713712	-2.3474697	0.6857099
C	0.9223473	-1.3692983	2.8311185
H	1.3055237	-0.4466466	2.4129274
H	0.9483686	-1.4571766	3.9095466
C	0.4165712	-2.3781072	2.0818056
C	-0.1368102	-3.6307941	2.7242851
H	0.3680373	-4.5332399	2.3569927
H	-0.0052163	-3.5860263	3.8072120
H	-1.2084533	-3.7491290	2.5200937
C	-0.2231155	-2.7506419	-1.5786571
C	-0.2468357	-3.3801874	-0.1707575
C	0.9075160	-1.2254835	-0.0708037
C	0.9662041	-1.7685187	-1.5250503
H	-0.1121307	-3.5014676	-2.3665365
H	-1.1529903	-2.2011504	-1.7565603
H	0.3318106	-4.3158391	-0.1430219
H	-1.2694811	-3.6091020	0.1482285
H	1.8977706	-0.9357599	0.2949712
H	0.9065854	-0.9753642	-2.2758931
H	1.9170528	-2.2953071	-1.6639123
C	-2.5491805	3.4438848	-0.3077993
H	-2.4216683	3.5465539	0.7866333
O	-1.6188398	3.0207918	-1.0031198
C	-3.8946554	3.8478221	-0.8422239
H	-4.1006682	4.8971779	-0.5923075
H	-3.9314908	3.7144110	-1.9254696
H	-4.6841219	3.2486182	-0.3694547
C	-1.2618568	3.2292340	1.8618287
H	-1.8103152	2.2934691	1.6424650
O	-0.7231463	3.8610340	0.9460602
C	-1.2354345	3.6388649	3.3077133
H	-0.7764920	2.8479539	3.9158896
H	-0.6758802	4.5684604	3.4315190
H	-2.2594457	3.7718695	3.6812429
C	-0.2561833	5.1720125	-0.5967824
H	-0.1237240	5.1142474	-1.6939153
O	-0.5085277	4.1502945	0.0516209
C	-0.1074746	6.5431513	0.0006640
H	-0.8368308	7.2312812	-0.4471796
H	-0.2533014	6.5067128	1.0823217
H	0.8886342	6.9469533	-0.2241122
C	-0.8739381	4.0515976	1.4042968
H	-0.7591326	3.1157748	1.9836398
O	-0.8239590	4.0260846	0.1694433
C	-1.0859478	5.2953152	2.2211790
H	-0.2418950	5.4445580	2.9077271
H	-1.1888676	6.1667384	1.5710976
H	-1.9851312	5.1901506	2.8426474
C	-0.2109229	4.9241633	0.2180600
H	-0.2057984	4.5705682	1.2666434
O	-0.0145052	4.1267398	-0.7058166
C	-0.4667620	6.3936426	0.0329794
H	0.2945002	6.9794183	0.5653265
H	-0.4543317	6.6532267	-1.0276989
H	-1.4375348	6.6656429	0.4682144
C	-0.8372700	4.4337177	2.0013265
H	-1.8569770	4.8417545	1.8660992
O	-0.2213588	3.9717127	1.0342603
C	-0.2988214	4.4917343	3.4033911
H	-0.9588127	3.9380922	4.0845218
H	0.7077175	4.0700723	3.4441015
H	-0.2782254	5.5310512	3.7572403
C	0.9666795	4.1351571	1.8514216
H	2.0161198	4.0117867	1.5227311
O	0.0434965	4.0022847	1.0401940
C	0.7796092	4.4634499	3.3061747
H	1.3049055	5.3956309	3.5534583
H	-0.2818066	4.5667294	3.5413481
H	1.2211368	3.6756326	3.9308431
C	-2.0758680	3.2213655	0.8811613
H	-1.6459410	3.7315438	1.7640337
O	-1.6026359	3.4233671	-0.2427866
C	-3.2328209	2.3046883	1.1644299
H	-4.0492553	2.8633826	1.6412342
H	-3.5922649	1.8461190	0.2408006
H	-2.9295410	1.5213916	1.8717353
C	1.9881500	4.6678713	-0.3713777
H	2.2084446	4.5145623	-1.4449462
O	1.0628936	4.0488503	0.1659544
C	2.8769639	5.6517442	0.3364938
H	2.8124855	6.6352614	-0.1478444
H	2.5895769	5.7400249	1.3863470
H	3.9251624	5.3321002	0.2663437
C	-2.8407286	2.4887098	0.3176928
H	-2.9430366	2.1371057	-0.7265728
O	-2.2480578	3.5460021	0.5603580
C	-3.4602764	1.6023249	1.3615130
H	-3.0168639	0.5986479	1.3160728
H	-3.3124880	2.0241571	2.3579030
H	-4.5343706	1.4833362	1.1666371
C	-1.1860247	2.5186174	-2.5739941
H	-0.1704297	2.1672005	-2.8379182
O	-1.4596476	2.7988042	-1.4015446
C	-2.1534557	2.6179839	-3.7199791
H	-2.2683992	1.6384704	-4.2030817
H	-3.1257843	2.9709961	-3.3699274
H	-1.7646880	3.3043827	-4.4838703
C	-0.8025397	3.6559621	1.7882777
H	0.2178774	3.2440675	1.9052162
O	-1.3376493	3.6789733	0.6742129
C	-1.4444292	4.1599383	3.0504441
H	-0.8282351	4.9515304	3.4973600
H	-2.4444861	4.5463839	2.8427846
H	-1.5075094	3.3514377	3.7908231
C	-0.8631432	3.9715495	-2.5618783
H	-1.1041357	4.9152880	-2.0366517
O	-0.6218879	2.9463400	-1.9147669
C	-0.8572948	4.0507560	-4.0628015
H	-0.1279239	4.7999945	-4.3985198
H	-0.6111185	3.0789741	-4.4959457
H	-1.8396334	4.3792246	-4.4274007
C	-2.8053816	2.2401886	-0.0638393
H	-2.6367838	2.4781081	1.0036588
O	-1.9118427	2.4451067	-0.8930613
C	-4.1573511	1.6722297	-0.3935043
H	-4.9457089	2.3753155	-0.0931557
H	-4.2356923	1.4680789	-1.4634398
H	-4.3261186	0.7463625	0.1722702
C	-0.5683975	2.6485659	-2.9610750
H	-1.5812563	2.2073279	-2.8977602
O	-0.0377509	3.1292995	-1.9534433
C	0.0693708	2.6097623	-4.3215249
H	-0.5585547	3.1423666	-5.0482222
H	1.0619792	3.0640795	-4.2915050
H	0.1488073	1.5720792	-4.6718348
C	-1.1839143	3.2503723	-2.5345184
H	-2.0233392	3.6094200	-1.9091915
O	-0.0874098	3.0058284	-2.0188748
C	-1.4886002	3.0959044	-3.9982069
H	-1.8144875	4.0563233	-4.4194429
H	-0.6079853	2.7389197	-4.5364039
H	-2.3182569	2.3904086	-4.1387736
C	-0.0300467	3.0157024	-2.7674799
H	0.5091106	3.0720014	-3.7322195
O	0.5142845	3.4085163	-1.7294949
C	-1.4185893	2.4444123	-2.8357074
H	-1.3882115	1.4262293	-3.2461065
H	-1.8738827	2.4267275	-1.8432499
H	-2.0396963	3.0419235	-3.5161630
C	1.1158142	2.8075266	-2.8249533
H	2.1348250	2.9646842	-2.4230808
O	0.1337810	2.9092782	-2.0811323
C	1.0428025	2.4749855	-4.2889080
H	1.6143845	1.5607214	-4.4973839
H	0.0045902	2.3374095	-4.5983665
H	1.5014276	3.2775062	-4.8817291
C	-5.1822014	1.0341792	-1.4368328
H	-4.7024695	1.7226992	-2.1582068
O	-6.2857105	1.3125363	-0.9543423
C	-4.4030274	-0.2102295	-1.1152543
H	-3.4213319	0.0554951	-0.7008738
H	-4.9485605	-0.8285059	-0.3992203
H	-4.2150282	-0.7853624	-2.0316012
C	-4.3153896	-4.5749959	1.1939659
H	-4.9759220	-3.6952472	1.0742907
O	-3.1098867	-4.4188711	1.4184654
C	-4.9899360	-5.9118499	1.0640182
H	-5.4663988	-6.0001439	0.0785060
H	-4.2666843	-6.7193952	1.1957538
H	-5.7886315	-6.0060333	1.8117002
C	-3.8651835	-4.1361597	3.3173573
H	-3.2263266	-3.7177186	4.1182017
O	-3.4260453	-4.2436468	2.1668721
C	-5.2493167	-4.5414067	3.7404743
H	-5.7839558	-3.6783986	4.1593119
H	-5.8068832	-4.9417189	2.8910944
H	-5.1950928	-5.2968956	4.5355276
C	2.2368642	4.0587217	-1.7393983
H	2.9406639	3.3889758	-2.2691995
O	1.4669453	3.6001023	-0.8879846
C	2.3027267	5.5075509	-2.1339032
H	2.1016016	5.6158976	-3.2080804
H	1.5776745	6.0923107	-1.5638752
H	3.3130294	5.9008274	-1.9594457
C	4.2748211	-3.3044302	-3.3207655
H	4.0786443	-2.3461388	-3.8382354
O	3.4313666	-3.7767179	-2.5503493
C	5.5989427	-3.9456107	-3.6284462
H	6.4188039	-3.2645034	-3.3639330
H	5.7074507	-4.8821284	-3.0773225
H	5.6832481	-4.1395292	-4.7059904
C	3.3429825	-5.1717174	-0.9590645
H	2.6039148	-5.9944499	-0.9974447
O	3.2171309	-4.1905328	-1.7003136
C	4.4593317	-5.3516990	0.0311118
H	5.0154897	-6.2724481	-0.1901486
H	5.1381254	-4.4967490	0.0015099
H	4.0509664	-5.4638896	1.0442577
C	-3.9879027	-0.5414821	1.9306105
H	-3.9392066	0.5637982	1.9068006
O	-4.9205848	-1.1328212	1.3752416
C	-2.8675464	-1.2218790	2.6660964
H	-2.8378562	-0.8795466	3.7091563
H	-2.9953982	-2.3060843	2.6390859
H	-1.9024791	-0.9526882	2.2166580
C	-0.5147776	-2.5224396	6.8531722
H	-1.6143459	-2.4809430	6.9706906
O	-0.0036494	-3.3525140	6.0930824
C	0.2599988	-1.5229546	7.6654710
H	0.0462806	-1.6580472	8.7341717
H	1.3317634	-1.6349923	7.4884261
H	-0.0522423	-0.5025620	7.4063999
C	0.3299019	-2.6852882	7.1519257
H	0.2190518	-3.3411949	8.0362795
O	-0.0664682	-3.0657343	6.0446030
C	0.9763155	-1.3535623	7.4121822
H	1.9804839	-1.4970852	7.8330074
H	1.0446186	-0.7747734	6.4886483
H	0.3975893	-0.7921973	8.1576744
C	-3.5614933	-3.6661142	0.3246871
H	-3.4228718	-4.0718418	-0.6954854
O	-3.4658779	-4.4113251	1.3062830
C	-3.8622553	-2.1954053	0.3997576
H	-4.7774641	-1.9679741	-0.1630165
H	-3.9830675	-1.8824737	1.4390145
H	-3.0519070	-1.6199804	-0.0671847
C	-4.3885800	2.4324286	1.9447717
H	-3.8817092	2.7001354	2.8913434
O	-5.6220623	2.3652862	1.8997675
C	-3.4796283	2.1710850	0.7766174
H	-2.7874478	1.3518160	1.0126922
H	-4.0619280	1.9153631	-0.1111382
H	-2.8639536	3.0569500	0.5716758
C	-3.2264495	4.4034714	0.5300925
H	-3.7954715	4.4077652	-0.4190010
O	-3.5597365	5.1517133	1.4558712
C	-2.0670141	3.4485453	0.5839754
H	-1.3520493	3.6771110	-0.2176666
H	-1.5653292	3.5105875	1.5519835
H	-2.4157513	2.4212439	0.4141297
C	-5.3472276	0.6029576	1.3569796
H	-6.0120101	-0.0955836	0.8141286
O	-5.8089388	1.6337389	1.8592989
C	-3.9008964	0.1993021	1.4222986
H	-3.4930091	0.0908391	0.4084393
H	-3.3210966	0.9425415	1.9736643
H	-3.8038493	-0.7800760	1.9093444
C	3.8811560	1.0762761	1.6711433
H	3.2728409	0.8317481	2.5626261
O	3.6349504	0.5376352	0.5861268
C	4.9809643	2.0762216	1.8938739
H	5.6731760	1.7108275	2.6641835
H	5.5270300	2.2570050	0.9655925
H	4.5627200	3.0208715	2.2660588
C	-2.5530423	0.9955357	3.6007725
H	-2.2910784	0.7969246	4.6574235
O	-2.8352156	2.1428456	3.2373577
C	-2.5341190	-0.2030977	2.6941314
H	-3.2351025	-0.9648772	3.0606842
H	-2.8034936	0.0838052	1.6754555
H	-1.5368552	-0.6627410	2.6966775
C	2.1914306	-3.6225573	6.5135756
H	2.3880179	-4.6819658	6.7657463
O	1.4831775	-3.3380991	5.5412212
C	2.8356113	-2.6121639	7.4208873
H	3.9257407	-2.7450723	7.4203880
H	2.5893211	-1.5979292	7.0995685
H	2.4983654	-2.7639422	8.4548321
C	-1.6237964	1.7756822	-3.0872312
H	-1.3045025	1.9456161	-2.0414030
O	-1.7112571	2.7276053	-3.8709437
C	-1.9261353	0.3479097	-3.4465849
H	-2.7230773	-0.0434782	-2.8002524
H	-2.2318187	0.2734077	-4.4923305
H	-1.0418262	-0.2800434	-3.2748706
C	6.1531059	-1.8466638	-0.4752306
H	6.5097892	-1.1244226	0.2835364
O	6.8709262	-2.1390565	-1.4381702
C	4.7806277	-2.4105469	-0.2356107
H	4.0414747	-1.5994820	-0.1923260
H	4.5111560	-3.1108165	-1.0290741
H	4.7468729	-2.9221782	0.7354235
