157
Analysis from 19 .xyz files
C	0.0000000	0.0000000	0.0000000
O	-1.2351589	0.0000000	0.0000000
O	0.7398588	1.1583230	0.0000000
H	0.1638039	1.9546759	-0.0135887
N	0.3617838	-2.3516401	0.6967929
C	0.6236104	-1.2327218	2.8274069
H	1.0416562	-0.3277283	2.4033174
H	0.5097647	-1.2548698	3.9039987
C	0.2486261	-2.3067115	2.0852872
C	-0.3263729	-3.5427694	2.7431589
H	0.3266208	-4.4147827	2.6123365
H	-0.4488164	-3.3745338	3.8150353
H	-1.3053171	-3.8042263	2.3234983
C	0.9635386	-3.2876418	-1.3827678
C	0.0625445	-3.5196790	-0.1590000
C	0.9004459	-1.2272211	-0.0650413
C	0.9789352	-1.7521144	-1.5343129
H	1.9734351	-3.6610456	-1.1787442
H	0.5887384	-3.7881625	-2.2798328
H	0.2964724	-4.4544716	0.3543261
H	-0.9987824	-3.5458875	-0.4478445
H	1.8907265	-0.9373352	0.3079065
H	0.0972026	-1.4224718	-2.0954933
H	1.8673927	-1.3763684	-2.0461949
C	-1.3330301	3.6669424	2.0194532
H	-1.6022745	4.6145804	2.5235092
O	-1.1669527	3.6418529	0.7947896
C	-1.1952465	2.4721350	2.9208572
H	-2.1364735	2.2937091	3.4577957
H	-0.9290384	1.5852163	2.3419917
H	-0.4267866	2.6602781	3.6823589
C	-1.7554257	4.3318695	-0.6077060
H	-1.8616661	4.3529159	0.4935900
O	-0.8315248	3.6974417	-1.1291663
C	-2.7901535	5.1096031	-1.3716083
H	-2.7700939	6.1646692	-1.0675032
H	-2.6093615	5.0337285	-2.4459147
H	-3.7945474	4.7317516	-1.1387257
C	0.3531562	3.7429901	2.0898310
H	1.3816401	3.3496386	1.9799294
O	-0.3601771	3.8999465	1.0925685
C	-0.0730436	4.0530131	3.4974238
H	0.6034517	4.7951597	3.9419678
H	-1.0963849	4.4339864	3.5118642
H	-0.0062992	3.1506246	4.1195601
C	-1.2090452	3.6900642	1.7795220
H	-2.0864803	3.2528924	1.2661301
O	-0.1678159	3.9081944	1.1500199
C	-1.3943957	3.9791714	3.2427855
H	-1.6538429	3.0571036	3.7799309
H	-0.4831877	4.4067545	3.6664003
H	-2.2307828	4.6759267	3.3870147
C	-0.4463833	4.4155362	1.5912143
H	0.1851318	4.2553558	2.4857051
O	0.0102840	4.1984108	0.4632411
C	-1.8432473	4.8983771	1.8645520
H	-1.8134693	5.8505677	2.4108974
H	-2.3925110	5.0285777	0.9297076
H	-2.3718325	4.1811561	2.5064282
C	1.9597657	3.4733543	1.4262598
H	2.6496524	3.1093667	0.6413061
O	0.8177202	3.8392769	1.1265185
C	2.5158058	3.4802303	2.8226301
H	3.4143718	4.1099572	2.8681258
H	1.7706786	3.8522665	3.5289950
H	2.8242722	2.4666294	3.1112045
C	-3.0742813	-1.3265085	-2.4059120
H	-3.6114147	-1.9619179	-1.6763056
O	-2.0241545	-1.7263975	-2.9210186
C	-3.7114111	0.0033630	-2.6967471
H	-3.8059683	0.5871625	-1.7713910
H	-3.1171589	0.5611689	-3.4235852
H	-4.7282380	-0.1419648	-3.0850206
C	-0.2994658	4.9051339	1.1273933
H	0.6784146	5.2980304	0.7898061
O	-0.4371291	3.6979957	1.3551617
C	-1.3905855	5.9281881	1.2753671
H	-1.5628283	6.4376856	0.3178748
H	-2.3156837	5.4546563	1.6108335
H	-1.0889955	6.7004081	1.9954594
C	-0.8051270	4.3758810	-1.2509626
H	-0.3735660	4.1972776	-2.2541768
O	-0.1085364	4.2254833	-0.2409357
C	-2.2475905	4.7978842	-1.2339155
H	-2.8700649	4.0345755	-1.7196443
H	-2.5888654	4.9514828	-0.2079935
H	-2.3766665	5.7246904	-1.8085310
C	-0.4716393	3.0950180	-2.6980339
H	-1.0718740	2.5684803	-3.4642318
O	-0.9259173	3.2596868	-1.5602608
C	0.8817025	3.5676535	-3.1498742
H	0.7773587	4.2524633	-4.0020448
H	1.4019865	4.0736636	-2.3338870
H	1.4817168	2.7167401	-3.4987906
C	-0.3434766	3.0250400	-3.2154330
H	-0.2666229	4.1162949	-3.3822838
O	-0.5991196	2.5869603	-2.0881597
C	-0.1185846	2.1683402	-4.4297505
H	0.8790099	2.3595493	-4.8472322
H	-0.2130941	1.1107934	-4.1743302
H	-0.8443313	2.4252539	-5.2127578
C	2.1520821	-7.1131648	2.4286715
H	3.1054483	-6.6077221	2.6740358
O	1.1935048	-6.4568627	2.0062864
C	2.1342769	-8.6001389	2.6470037
H	2.3583520	-8.8302702	3.6971831
H	1.1594851	-9.0140192	2.3804317
H	2.9164322	-9.0797457	2.0436597
C	4.6938583	-1.7979779	1.3117717
H	4.4520755	-2.7476679	1.8257879
O	4.1196951	-1.4997705	0.2584811
C	5.7353371	-0.9470558	1.9828394
H	6.6749000	-1.5071637	2.0805505
H	5.9101887	-0.0339663	1.4098900
H	5.4133354	-0.6884231	3.0003055
C	-3.6915253	0.9813078	2.7849349
H	-3.6856454	-0.1090359	2.5959930
O	-3.9599644	1.4136153	3.9114618
C	-3.3585489	1.8441519	1.6001545
H	-4.0693840	1.6561009	0.7844357
H	-3.3876235	2.9003375	1.8762039
H	-2.3615023	1.5902264	1.2164444
C	1.0870277	-7.4390653	-0.0717722
H	1.9073150	-6.9582391	-0.6379152
O	0.2657309	-6.7455580	0.5385814
C	1.0673086	-8.9413833	-0.1133605
H	2.0093215	-9.3424916	0.2838431
H	0.2287604	-9.3289646	0.4690436
H	0.9876090	-9.2893442	-1.1518134
C	2.5093891	-7.0216019	0.6894489
H	3.2010064	-7.0445987	1.5529995
O	2.0424455	-5.9461136	0.2979128
C	2.2066020	-8.3564250	0.0684455
H	1.7645206	-9.0289280	0.8156742
H	1.5197276	-8.2398389	-0.7724992
H	3.1345785	-8.8317983	-0.2760729
C	-4.1275653	0.4507474	-3.2650925
H	-4.9458072	0.4961146	-2.5214495
O	-4.2597159	0.9970790	-4.3660331
C	-2.9007495	-0.3011758	-2.8307973
H	-3.1626333	-1.3373940	-2.5783782
H	-2.1484485	-0.2950909	-3.6223673
H	-2.4832007	0.1506837	-1.9212427
C	-2.7755447	2.7117143	1.2818942
H	-2.6138562	2.5540181	0.1985790
O	-2.9362429	3.8546100	1.7245879
C	-2.7809310	1.4657238	2.1224633
H	-1.8263977	0.9334585	2.0147285
H	-2.9462500	1.7139973	3.1729901
H	-3.5665050	0.7806207	1.7770350
C	0.7748307	-5.6112259	-5.0491978
H	-0.2836069	-5.7200711	-5.3532462
O	1.0599986	-5.3818902	-3.8684791
C	1.7830663	-5.7613074	-6.1537405
H	1.5966334	-5.0164596	-6.9389102
H	2.7964667	-5.6395622	-5.7654439
H	1.6840193	-6.7487653	-6.6237725
