66
Analysis from 6 .xyz files
C	0.0000000	0.0000000	0.0000000
O	-1.2298043	0.0000000	0.0000000
O	0.6880598	1.1839125	0.0000000
H	1.6739429	1.0881854	-0.0510303
N	2.0238879	-1.2376116	0.8546147
C	3.3907774	0.0440217	-0.6870115
H	2.6995682	-0.0219983	-1.5195546
H	4.3321620	0.5373145	-0.8875580
C	4.2745695	-0.5376845	1.5733425
H	4.6844994	-1.5378643	1.7617115
H	5.0964668	0.1018006	1.2467892
H	3.8956082	-0.1505167	2.5260907
C	0.8812491	-3.1587140	1.6066662
C	1.7930635	-2.0163415	2.0884517
C	0.8378772	-1.3031376	-0.0224328
C	0.0104639	-2.5094418	0.5038637
H	1.4956536	-3.9648696	1.1897762
H	0.2783380	-3.5787830	2.4172355
H	2.7338226	-2.3784486	2.5058615
H	1.2915376	-1.4061990	2.8553707
H	1.1611412	-1.4664610	-1.0606498
H	-0.9411348	-2.1443446	0.8977129
H	-0.2215051	-3.2121740	-0.3004041
C	3.1948640	-0.5767960	0.5129720
C	-2.3937278	-1.5710821	-2.3183963
H	-2.6200700	-0.6813010	-1.7006247
O	-1.2312506	-1.8025174	-2.6692475
C	-3.5757096	-2.4291771	-2.6728960
H	-4.3201949	-1.8379239	-3.2226306
H	-3.2615796	-3.2804421	-3.2805530
H	-4.0683344	-2.7891476	-1.7599035
C	-1.0788828	-1.8667136	-3.4754391
H	-0.8658235	-0.9352169	-4.0335632
O	-0.2542414	-2.3069401	-2.6666256
C	-2.4009782	-2.5139014	-3.7792314
H	-2.4649065	-2.7585218	-4.8479320
H	-2.5270437	-3.4224071	-3.1865244
H	-3.2211849	-1.8161449	-3.5642655
C	-1.3816382	0.6420620	3.6945606
H	-1.0630026	1.6917950	3.8398697
O	-0.6189033	-0.1682627	3.1563958
C	-2.7618545	0.3114192	4.1892892
H	-3.5049477	0.9447377	3.6865295
H	-2.9918360	-0.7403203	4.0061792
H	-2.8389334	0.5244811	5.2637550
C	-3.9547176	2.0122016	-0.1351293
H	-2.9358255	2.4216985	0.0018163
O	-4.7833645	2.6269529	-0.8158917
C	-4.2221978	0.7021450	0.5513722
H	-4.0594526	0.8024299	1.6328082
H	-5.2466785	0.3741129	0.3631945
H	-3.5186075	-0.0616911	0.1945411
C	-3.8929937	3.0458287	-1.5821878
H	-3.5842362	3.7577833	-0.7932820
O	-5.0559871	3.0510561	-2.0010326
C	-2.8170407	2.1176227	-2.0719195
H	-2.4242462	1.5213220	-1.2375427
H	-3.2080986	1.4534948	-2.8456019
H	-1.9737702	2.6953680	-2.4730661
C	-1.1788364	-2.5784963	-2.6682133
H	-1.7575513	-1.8363962	-2.0860110
O	0.0408100	-2.4382970	-2.8125011
C	-1.9772380	-3.7169638	-3.2387611
H	-2.7635729	-3.3317958	-3.9016111
H	-1.3290687	-4.3974880	-3.7949444
H	-2.4827310	-4.2649806	-2.4325553
