227
Analysis from 29 .xyz files
C	0.0000000	0.0000000	0.0000000
O	-1.2346825	0.0000000	0.0000000
O	0.7298700	1.1714570	0.0000000
H	0.1277234	1.9473808	-0.0238784
N	1.8600070	-1.2616231	-1.0929492
C	3.0751262	-0.6092149	0.8636984
C	3.1960853	-0.8175331	-0.6630275
C	2.4720806	-1.3227286	-3.4264592
H	3.4738465	-0.9518264	-3.2520556
H	2.2130807	-1.5604870	-4.4502646
C	1.5645870	-1.5037587	-2.4383076
C	0.1771045	-2.0333200	-2.7349060
H	-0.6128701	-1.3593017	-2.3830220
H	0.0525813	-2.1640884	-3.8116820
H	0.0098240	-3.0073113	-2.2560222
C	0.8811945	-1.2463616	-0.0050084
C	1.7730577	-1.3435922	1.2593608
H	3.9427934	-1.0025212	1.4017427
H	2.9876913	0.4560914	1.0911359
H	3.9379109	-1.5844035	-0.9280569
H	3.4847776	0.1114222	-1.1734900
H	0.1905089	-2.0899023	-0.0735682
H	1.2959214	-0.9176004	2.1469132
H	1.9682101	-2.4034561	1.4568180
C	-0.8860187	4.6747387	-1.3249507
H	-0.4833736	4.4298854	-2.3262032
O	-0.3851613	4.1681818	-0.3147258
C	-2.0427084	5.6343968	-1.3106952
H	-2.8757218	5.2304832	-1.9014484
H	-2.3742383	5.8183249	-0.2865687
H	-1.7518548	6.5833104	-1.7805682
C	-1.2158097	4.8037224	0.4847372
H	-0.2017897	5.2231500	0.6276608
O	-1.3597967	3.6999309	-0.0527793
C	-2.3456826	5.6613135	0.9817308
H	-2.3284144	6.6373509	0.4786408
H	-3.3051135	5.1720577	0.8009054
H	-2.2274384	5.8563526	2.0558777
C	-0.0171827	3.8628793	2.3827760
H	-0.2590643	3.0777674	3.1241769
O	-0.4530217	3.7810432	1.2289305
C	0.8489182	4.9829704	2.8871004
H	1.8036998	4.5851789	3.2561547
H	1.0360775	5.7088089	2.0929300
H	0.3640463	5.4820769	3.7365739
C	0.0374793	3.0066500	2.9880344
H	0.3942124	3.7929833	3.6801356
O	-0.2140651	3.2852511	1.8102742
C	-0.1051305	1.6353174	3.5865219
H	-0.8075319	1.6627722	4.4302787
H	-0.4602781	0.9257842	2.8361822
H	0.8591539	1.2963589	3.9878644
C	-1.5837301	-2.3808140	2.5674903
H	-1.5639286	-3.3543764	2.0417840
O	-0.5492815	-1.9258637	3.0684380
C	-2.9218812	-1.6978683	2.6123757
H	-3.6593409	-2.3443591	3.1065917
H	-2.8488658	-0.7486308	3.1473464
H	-3.2892782	-1.5197733	1.5930058
C	1.0925456	5.0204483	0.3676945
H	0.1974024	5.4418308	-0.1280257
O	1.4115570	3.8421014	0.1734204
C	1.8464633	5.9700976	1.2558681
H	1.1882073	6.3479311	2.0495857
H	2.7104817	5.4725371	1.7013819
H	2.1800244	6.8426924	0.6786951
C	-4.5587122	2.5906370	0.6954045
H	-5.0728590	2.2825532	-0.2348215
O	-4.5664272	3.7765274	1.0441404
C	-3.8833940	1.4847595	1.4570200
H	-3.1329701	0.9934498	0.8233595
H	-3.4041905	1.8772284	2.3564137
H	-4.6161055	0.7155171	1.7348931
C	-1.9845765	-4.1280403	-0.3710865
H	-1.8986016	-3.0332180	-0.2348685
O	-0.9768961	-4.8043262	-0.6060964
C	-3.3744193	-4.6871178	-0.2492370
H	-4.0360969	-4.2187421	-0.9900837
H	-3.3655627	-5.7690848	-0.3970397
H	-3.7901862	-4.4530613	0.7397872
C	-2.5482249	-4.0679515	-0.7877916
H	-3.5246344	-3.5527789	-0.8639790
O	-1.6008527	-3.5187649	-0.2143005
C	-2.4863751	-5.4316081	-1.4168331
H	-2.7319968	-5.3660767	-2.4852069
H	-1.4910553	-5.8640863	-1.2948579
H	-3.2346163	-6.0926096	-0.9596400
C	4.6778957	-4.2821519	0.7226050
H	4.0359393	-5.1490340	0.9695669
O	4.5484315	-3.2192300	1.3402199
C	5.6731132	-4.5086864	-0.3807092
H	5.1537003	-4.7966995	-1.3044546
H	6.2611135	-3.6054098	-0.5565609
H	6.3420739	-5.3398630	-0.1209966
C	-3.0809873	2.9398163	2.4324887
H	-3.1258349	3.8290795	1.7753870
O	-2.7549307	3.0615298	3.6186106
C	-3.4366292	1.6343063	1.7780877
H	-2.7650362	1.4413348	0.9308736
H	-3.3660772	0.8148571	2.4964902
H	-4.4552531	1.6813284	1.3706473
C	0.4563492	-5.1599339	1.2085466
H	0.7164745	-5.0780112	0.1360699
O	0.6244433	-4.1948739	1.9624801
C	-0.0936310	-6.4904562	1.6401835
H	0.6312281	-7.2866778	1.4241803
H	-0.3217701	-6.4815571	2.7081020
H	-1.0023540	-6.7261547	1.0705501
C	0.1462952	-5.1084593	1.5726975
H	-0.9128917	-4.9201645	1.3133701
O	0.7996704	-4.2480202	2.1733284
C	0.6883199	-6.4439201	1.1462801
H	0.5995866	-6.5572443	0.0575510
H	1.7349262	-6.5436943	1.4416393
H	0.0985648	-7.2525162	1.5981369
C	4.4638494	-4.4822968	-0.7967618
H	5.0724320	-3.5662063	-0.6743350
O	3.4113655	-4.6164728	-0.1625013
C	5.0114960	-5.4978608	-1.7599808
H	6.0128066	-5.8180145	-1.4422925
H	4.3501687	-6.3649364	-1.8183137
H	5.1231061	-5.0510230	-2.7568221
C	-5.2902213	-0.3013419	-1.7191233
H	-5.9212152	-0.6874176	-0.8960951
O	-5.8018662	0.3397589	-2.6439052
C	-3.8242743	-0.6150425	-1.6110988
H	-3.6725469	-1.7020577	-1.5733687
H	-3.2803856	-0.1977741	-2.4611864
H	-3.4184560	-0.2058252	-0.6763978
C	-3.4752049	1.3973715	-3.4496659
H	-3.8275201	0.9287675	-4.3882111
O	-3.2030247	2.6028675	-3.4230323
C	-3.3644964	0.4743940	-2.2685925
H	-2.6731500	-0.3481154	-2.4956723
H	-3.0116488	1.0185182	-1.3899548
H	-4.3398373	0.0181928	-2.0531766
C	-4.2226650	-2.1256370	-3.3861735
H	-4.1535412	-1.2689844	-4.0832755
O	-4.5625020	-3.2384249	-3.8035777
C	-3.8809620	-1.8225853	-1.9542249
H	-4.5443345	-1.0384077	-1.5655744
H	-3.9753973	-2.7208039	-1.3403341
H	-2.8562811	-1.4339931	-1.8846646
C	-4.7837295	-2.5381415	0.4067901
H	-5.2972632	-2.3515469	-0.5555240
O	-5.3914017	-3.0755018	1.3395230
C	-3.3479857	-2.0978558	0.4689695
H	-3.2745198	-1.0203662	0.2698065
H	-2.9222282	-2.3197197	1.4498282
H	-2.7635321	-2.6047121	-0.3103404
C	-1.1634293	-4.4999701	-5.9390068
H	-1.0296324	-4.7802291	-7.0011443
O	-0.8381038	-3.3727212	-5.5497953
C	-1.7493842	-5.5674650	-5.0579907
H	-1.1136810	-6.4627907	-5.0758845
H	-1.8456766	-5.2060822	-4.0319755
H	-2.7345555	-5.8707265	-5.4365185
C	-1.5562143	-4.0625268	-6.2988864
H	-0.9625286	-4.6560114	-7.0199245
O	-0.9905488	-3.2852601	-5.5217821
C	-3.0424119	-4.2805207	-6.3515521
H	-3.2757962	-5.3374831	-6.1660555
H	-3.5466829	-3.6575889	-5.6097682
H	-3.4235970	-4.0429787	-7.3535924
C	1.5601447	-4.7128028	-5.2562284
H	2.5284038	-4.1994631	-5.4096547
O	0.5403752	-4.0549579	-5.0210211
C	1.6007081	-6.2119584	-5.3560533
H	2.3013917	-6.6208331	-4.6158432
H	0.6065224	-6.6330435	-5.1921669
H	1.9714682	-6.5146700	-6.3443427
C	2.1912682	-2.4204361	-7.0403720
H	2.9963570	-1.8057780	-6.5947147
O	1.0161381	-2.2437594	-6.6999803
C	2.6401644	-3.4402362	-8.0491227
H	3.3573308	-4.1343077	-7.5908827
H	1.7845921	-3.9983648	-8.4352122
H	3.1632201	-2.9460257	-8.8785696
C	-0.6970232	-1.7565607	-6.4545233
H	-1.5988294	-2.0743886	-5.8974651
O	0.4234713	-2.1180612	-6.0779312
C	-0.9514024	-0.8864753	-7.6534064
H	-1.4804934	0.0272443	-7.3513698
H	-0.0103919	-0.6218376	-8.1402768
H	-1.6024125	-1.4082912	-8.3673442
C	3.0548038	4.1895416	-0.2128882
H	2.5280927	4.5745941	-1.1066963
O	2.6940543	4.5377712	0.9169826
C	4.1943164	3.2492944	-0.4895184
H	4.9475296	3.7433855	-1.1176831
H	4.6540666	2.9204728	0.4448707
H	3.8359002	2.3767292	-1.0516404
C	-2.2311012	1.0069690	-3.4256128
H	-2.2759535	-0.0950406	-3.3353580
O	-1.8137789	1.6894723	-2.4832522
C	-2.7025561	1.5674636	-4.7381121
H	-3.7443137	1.2726641	-4.9221803
H	-2.6236349	2.6566593	-4.7391055
H	-2.1058251	1.1533809	-5.5616781
C	4.1682956	2.2710839	-5.6383722
H	5.1693588	1.8090580	-5.7331747
O	3.6004150	2.7296759	-6.6359779
C	3.5930389	2.2872817	-4.2498854
H	4.2628087	2.8306385	-3.5700188
H	2.6081469	2.7590493	-4.2496138
H	3.5117304	1.2628586	-3.8628978
C	-3.6363860	-3.7864447	-1.3058257
H	-4.5778324	-3.2372356	-1.4972175
O	-3.4950814	-4.9398308	-1.7274245
C	-2.5970542	-3.0339275	-0.5231473
H	-3.0008614	-2.7390355	0.4546181
H	-1.7055478	-3.6486100	-0.3818726
H	-2.3273271	-2.1073578	-1.0471028
C	6.7334644	-3.7662404	-3.9842920
H	7.3262303	-3.5492920	-3.0753667
O	6.6838379	-4.9175128	-4.4316408
C	6.0291534	-2.5863152	-4.5932259
H	6.7574266	-1.8098426	-4.8629577
H	5.4712226	-2.8906909	-5.4812831
H	5.3434609	-2.1374592	-3.8623582
C	6.7427330	-0.6036499	-2.2379007
H	6.7477396	0.4217190	-1.8217560
O	5.6899571	-1.0968732	-2.6579074
C	8.0720221	-1.3051026	-2.2436476
H	8.4660208	-1.3758647	-1.2210018
H	7.9742874	-2.3059612	-2.6694487
H	8.8018844	-0.7262575	-2.8250707
