209
Analysis from 96 .xyz files
C	0.0000000	0.0000000	0.0000000
H	-1.0876770	0.0000000	0.0000000
C	0.6734828	1.2204419	0.0000000
H	0.1135651	2.1515816	-0.0001816
C	2.0630848	1.2410652	0.0017554
H	2.5952011	2.1881469	0.0031847
C	2.7756895	0.0407884	0.0036485
H	3.8617945	0.0772424	0.0077125
C	2.1153618	-1.1946992	0.0000297
N	2.8651457	-2.3597816	0.0192637
H	2.4202666	-3.2650157	-0.0062611
H	3.8739801	-2.3184439	-0.0044763
C	-0.0594265	-2.5067416	0.0024469
H	-1.1408926	-2.3336706	0.0016478
H	0.1801077	-3.0905427	0.8970109
H	0.1808011	-3.0914038	-0.8914889
C	0.7090295	-1.2141785	0.0014525
Br	6.8203474	-0.4154581	0.0640369
H	6.8784125	-0.6107441	1.5005614
Br	6.8203474	-0.4154581	0.0640369
H	6.8784125	-0.6107441	1.5005614
Br	6.7733618	-2.3090226	-0.7719459
H	7.2364606	-1.3991876	0.2590005
Br	6.7110221	-3.2273855	-0.3178288
H	6.9788474	-2.9214308	-1.7105858
Br	2.2775193	-5.8430765	1.5190149
H	3.0594745	-5.2568562	2.5913967
Br	2.2127167	0.4019374	4.3486159
H	1.9618974	0.6790947	2.9466942
Br	1.5850060	-6.1260401	0.3195681
H	0.8979652	-6.5330176	-0.8918175
Br	5.0475159	-0.9448741	3.0147326
H	3.6312340	-0.6482266	2.9086345
Br	6.3664141	-3.5630796	-1.1077351
H	5.5284640	-4.5380336	-1.7803531
Br	1.0469493	1.6353373	-4.2636672
H	0.4123353	1.4045917	-2.9794818
Br	3.6415009	4.9636341	-0.4214914
H	3.7103239	4.4994735	-1.7944186
Br	1.5533566	0.1363583	-4.1718057
H	2.3001107	-0.0993910	-2.9503755
Br	0.4213712	-1.9798687	-3.6657083
H	0.1756154	-0.6367095	-3.1751591
Br	-0.7696231	1.7943331	3.8095039
H	0.1018695	1.0318886	2.9352673
Br	2.1440774	-4.7622976	2.5757337
H	1.1334342	-5.6456903	3.1264862
Br	5.8962040	-0.7065598	2.0621968
H	4.9032123	-1.3174689	2.9258337
Br	3.9660072	1.0106141	-3.8404796
H	3.0253369	0.3296527	-2.9706855
Br	3.0895125	-6.1830510	-0.1805785
H	4.3872688	-6.2992496	-0.8188867
Br	2.7430410	-4.5701399	3.2663873
H	2.4905881	-3.1682146	2.9907356
Br	-2.1639107	0.8047074	-2.9011364
H	-0.7984738	1.2576790	-2.7126969
Br	1.8236194	3.7296258	3.6219235
H	1.7712325	2.4900251	2.8697555
Br	1.7631285	5.0247040	-0.4902516
H	1.2155350	4.5963152	-1.7637253
Br	4.6535866	-3.9218359	-2.4377064
H	3.3177690	-3.5367756	-2.8529539
Br	-3.8145031	-2.9584151	1.2016760
H	-4.0177789	-1.7392982	1.9616391
Br	5.8002788	-4.5986208	-0.2904325
H	4.7047889	-5.3772733	0.2561139
Br	-0.4566247	-5.7618881	-2.0966120
H	-1.0644960	-5.9295983	-0.7899077
Br	-1.0856616	-4.2584058	-3.3465792
H	0.2659154	-4.2662972	-3.8741096
Br	-0.8380330	-4.4599723	-3.3545914
H	-2.1258869	-5.0297722	-3.0054905
Br	5.2189829	4.1049974	2.5447631
H	4.5795773	4.0633674	1.2430188
Br	-1.8311858	-1.3835029	2.7586709
H	-2.6587319	-0.8491066	3.8238934
Br	-4.0162099	1.8626604	1.9959800
H	-3.7730822	0.7524833	1.0940341
Br	4.7266135	-5.0888084	-3.2102537
H	3.7495665	-4.8726942	-2.1596422
Br	-1.2723474	3.4492317	2.9784910
H	-2.0679934	3.1414044	1.8049065
Br	0.0459685	-6.1746647	3.6438550
H	-0.0782475	-5.7431392	2.2641931
Br	6.2452710	-1.6927688	3.3404166
H	5.4897714	-2.6077134	2.5054272
Br	0.6052332	3.5687065	-3.3280383
H	-0.4362736	3.8988629	-2.3733809
Br	3.4715513	-2.5417233	2.9569847
H	3.2512439	-2.8845183	4.3494886
Br	1.5136185	-6.3284490	-2.8070216
H	0.9960023	-5.9097071	-1.5178980
Br	5.9407006	-3.8389243	3.4591574
H	5.7277273	-3.1612551	2.1940417
Br	2.1614363	3.4996879	3.1094429
H	1.6879709	4.2608053	1.9685478
Br	3.5911457	-6.7113980	0.9354805
H	3.3804302	-6.0832430	-0.3553065
Br	3.1267954	2.9663481	3.3957963
H	4.1627774	3.1020057	2.3890941
Br	-1.6663272	-5.3114195	-0.0890461
H	-0.6963881	-6.1060398	0.6409589
Br	4.1711895	2.1409223	-2.5479529
H	3.9897493	3.2882748	-3.4173047
Br	3.8410970	-6.5666542	-2.1701212
H	4.0516892	-5.3818389	-1.3595816
Br	7.5877469	-2.1501502	-1.1074249
H	6.7363427	-3.1056450	-0.4238669
Br	2.0116443	-6.9473773	1.8214644
H	2.8671199	-5.9981964	1.1342033
Br	5.3672699	-5.0472180	2.2348106
H	4.4475914	-5.1614717	1.1184556
Br	2.7605620	-2.3497600	-3.1048533
H	1.9429169	-1.1564205	-2.9930129
Br	0.7381296	-1.7905024	-4.3698519
H	0.2030848	-3.0507325	-3.8895832
Br	7.9687971	-0.9018549	-0.9442562
H	6.6614531	-1.4956971	-0.7361358
Br	-1.5909807	0.3123146	-2.9403647
H	-2.8382151	1.0089685	-3.1937234
Br	2.2602412	3.5493919	-2.6446822
H	2.4336546	3.4057424	-4.0780012
Br	5.2963659	-6.5636263	-0.3480886
H	4.5123755	-5.3538379	-0.5120457
Br	1.0977500	3.8378762	-2.2742906
H	0.6004236	3.4664003	-3.5856955
Br	7.3322306	-2.6718969	1.9643718
H	6.7024833	-3.0155864	0.7032586
Br	6.2468150	-2.9779034	-3.2353181
H	6.0344014	-3.2995422	-1.8365545
Br	-1.8718680	1.1134657	2.6695098
H	-2.0868833	2.5426775	2.7969184
Br	1.5895614	-0.7301786	3.3405191
H	2.8216954	-1.3616201	2.9066548
Br	6.4035010	-1.1264975	-2.7352718
H	6.4269303	-1.4808933	-1.3285147
Br	-1.3066866	2.2759904	2.6371732
H	-1.6103059	1.3453264	3.7080563
Br	-1.0735938	2.3100558	-2.7480941
H	-0.4247710	3.0966485	-3.7802820
Br	2.2188795	-0.9335128	3.3473175
H	0.8096041	-1.2175125	3.1513639
Br	1.9081780	-1.8919493	3.0324202
H	1.3800674	-2.4396548	4.2678264
Br	3.7902994	-2.5620615	3.4626842
H	5.0426873	-2.6491422	2.7353245
Br	3.7494680	-1.4056361	2.8497403
H	4.0784334	-0.0856789	3.3543247
Br	4.1862286	2.0578740	2.5417538
H	5.0869118	2.7067042	1.6074627
Br	3.7016360	-0.6221069	-2.9046630
H	4.6620689	-0.1371054	-3.8780351
Br	2.4669785	2.3709766	-2.9870883
H	1.0467170	2.4124274	-3.2807720
Br	-1.1234810	-0.1143749	3.0318605
H	-0.4312060	-1.3664014	3.2733055
Br	4.2438116	-2.2386044	-3.0089574
H	5.5289079	-2.6595070	-2.4831448
Br	-1.2642835	0.6117655	-2.9313394
H	-0.7529726	0.7959065	-4.2766141
Br	0.2964671	2.0312265	3.1924658
H	-1.0777697	1.9151178	2.7417967
Br	0.6568596	2.1933167	-2.9470977
H	1.3052687	0.8957199	-2.9774153
Br	3.0212413	0.1533363	2.9872217
H	2.8869163	-0.3917095	4.3251277
Br	-1.2139801	0.7539145	-2.8987945
H	-1.7871805	-0.5789550	-2.8955143
Br	3.0232256	-2.2933221	-2.9718021
H	2.0348507	-2.4049768	-4.0280972
Br	2.3835412	-1.5326330	3.0967863
H	2.8149175	-2.9116559	2.9651772
Br	3.0338594	-2.2916009	-2.9714180
H	3.6603147	-0.9871171	-2.8666004
Br	-0.1792731	-0.5484285	2.9407737
H	0.4155307	-0.7084900	4.2544326
Br	3.5884991	0.8420059	-2.8783479
H	3.5349590	-0.1799989	-3.9068179
Br	1.9481636	-1.0782172	-3.0509778
H	2.1791312	-2.5106135	-3.0486481
Br	3.4699253	-3.2388489	2.8204565
H	2.3410401	-4.1408698	2.9511750
Br	2.2196087	-1.2559179	2.9955078
H	2.5644058	-0.1503940	3.8696031
Br	0.3555449	-0.9856046	-3.0174289
H	1.6915027	-0.7099881	-3.5117598
Br	-0.7190334	0.9352601	2.8240221
H	0.2693849	0.5187528	3.8010900
Br	-0.2020283	0.3093806	-2.9766368
H	-0.2187021	1.7600520	-2.9570020
Br	2.1580394	-0.6092379	-2.9413749
H	1.6332037	0.7121365	-3.2305597
Br	2.3805890	0.0345397	2.9746131
H	1.0494208	0.4505570	3.3746527
Br	1.1916931	1.4756301	2.9396543
H	-0.0419740	1.0900982	3.5988518
Br	0.4467913	-0.0180766	2.9641326
H	1.7916539	-0.4644647	3.2758908
Br	-0.3232892	0.9626089	2.8184997
H	-0.4196924	2.3518494	3.2257193
Br	2.4684234	-0.4858063	-2.9305333
H	3.8023509	-0.9355292	-3.2819561
Br	2.1948314	0.7121232	-2.9459751
H	1.6475390	2.0545275	-3.0054129
Br	1.4844263	1.2358873	2.9439132
H	2.2762831	2.3568620	3.4145396
Br	1.0191112	0.0784956	-2.8203815
H	0.3304712	-0.0695073	-4.0888376
